version 2
run Test-16-20200525-12:23:58-6756
attr configname Test
attr datetime 20200525-12:23:58
attr experiment "\"Simulation Test\""
attr inifile BasicConfig.ini
attr iterationvars ""
attr iterationvars2 $repetition=16
attr measurement "\"Peers: $peers, Rate: $rate\""
attr network BasicTopology
attr processid 6756
attr repetition 16
attr replication #16
attr resultdir results
attr runnumber 16
attr seedset 16

scalar BasicTopology.peer[0].networkLayer.arp 	failedResolution:count 	0
attr title  "ARP failed resolutions, count"
scalar BasicTopology.peer[0].networkLayer.arp 	initiatedResolution:count 	4
attr title  "ARP initiated resolutions, count"
scalar BasicTopology.peer[0].networkLayer.arp 	sentReplies:count 	0
attr title  "ARP replies sent, count"
scalar BasicTopology.peer[0].networkLayer.arp 	sentReq:count 	8
attr title  "ARP request sent, count"
scalar BasicTopology.peer[0].wlan[0].mgmt 	dropPkByQueue:count 	367
attr interpolationmode  none
attr source  dropPkByQueue
attr title  "packets dropped by queue, count"
scalar BasicTopology.peer[0].wlan[0].mgmt 	dropPkByQueue:sum(packetBytes) 	156507
attr interpolationmode  none
attr source  dropPkByQueue
attr title  "packets dropped by queue, sum(packetBytes)"
scalar BasicTopology.peer[0].wlan[0].mgmt 	dataQueueLen:max 	10
attr interpolationmode  sample-hold
attr title  "data queue length, max"
scalar BasicTopology.peer[0].wlan[0].mgmt 	dataQueueLen:timeavg 	0.20668553073598
attr interpolationmode  sample-hold
attr title  "data queue length, timeavg"
scalar BasicTopology.peer[0].wlan[0].mac 	"number of received packets" 	36167
scalar BasicTopology.peer[0].wlan[0].mac 	"number of collisions" 	5392
scalar BasicTopology.peer[0].wlan[0].mac 	"number of internal collisions" 	0
scalar BasicTopology.peer[0].wlan[0].mac 	"number of retry for AC 0" 	30481
scalar BasicTopology.peer[0].wlan[0].mac 	"sent and receive bites" 	142422448
scalar BasicTopology.peer[0].wlan[0].mac 	"sent packet within AC 0" 	37528
scalar BasicTopology.peer[0].wlan[0].mac 	"sent in TXOP " 	0
scalar BasicTopology.peer[0].wlan[0].mac 	"sentWithoutRetry AC 0" 	23721
scalar BasicTopology.peer[0].wlan[0].mac 	"numGivenUp AC 0" 	442
scalar BasicTopology.peer[0].wlan[0].mac 	"numDropped AC 0" 	0
scalar BasicTopology.peer[0].wlan[0].radio 	lossRate:min 	0
attr interpolationmode  backward-sample-hold
attr title  "packet loss rate, min"
scalar BasicTopology.peer[0].wlan[0].radio 	lossRate:max 	0.14
attr interpolationmode  backward-sample-hold
attr title  "packet loss rate, max"
scalar BasicTopology.peer[0].wlan[0].radio 	lossRate:timeavg 	0.0053822976978965
attr interpolationmode  backward-sample-hold
attr title  "packet loss rate, timeavg"
scalar BasicTopology.peer[0].wlan[0].radio 	radioState:count 	2188718
attr interpolationmode  sample-hold
attr title  "radio state (enum), count"
statistic BasicTopology.peer[0].wlan[0].radio 	channelNo:histogram
field count 0
field mean 0
field stddev -nan
field sum 0
field sqrsum 0
field min 0
field max 0
attr interpolationmode  sample-hold
attr title  "channel no, histogram"
bin	-INF	0
bin	-0.5	0
bin	-0.46666666666667	0
bin	-0.43333333333333	0
bin	-0.4	0
bin	-0.36666666666667	0
bin	-0.33333333333333	0
bin	-0.3	0
bin	-0.26666666666667	0
bin	-0.23333333333333	0
bin	-0.2	0
bin	-0.16666666666667	0
bin	-0.13333333333333	0
bin	-0.1	0
bin	-0.066666666666667	0
bin	-0.033333333333333	0
bin	0	0
bin	0.033333333333333	0
bin	0.066666666666667	0
bin	0.1	0
bin	0.13333333333333	0
bin	0.16666666666667	0
bin	0.2	0
bin	0.23333333333333	0
bin	0.26666666666667	0
bin	0.3	0
bin	0.33333333333333	0
bin	0.36666666666667	0
bin	0.4	0
bin	0.43333333333333	0
bin	0.46666666666667	0
bin	0.5	0
scalar BasicTopology.peer[0].wlan[0].radio 	bitrate:min 	-nan
attr interpolationmode  sample-hold
attr title  "tx bitrate, min"
attr unit  bps
scalar BasicTopology.peer[0].wlan[0].radio 	bitrate:max 	-nan
attr interpolationmode  sample-hold
attr title  "tx bitrate, max"
attr unit  bps
scalar BasicTopology.peer[0].wlan[0].radio 	bitrate:timeavg 	-nan
attr interpolationmode  sample-hold
attr title  "tx bitrate, timeavg"
attr unit  bps
statistic BasicTopology.peer[0].bitTorrentApp.swarmManager 	ContentManager_PieceDownloadTime:histogram
field count 0
field mean 0
field stddev -nan
field sum 0
field sqrsum 0
field min 0
field max 0
attr title  "Swarm Piece Download Time, histogram"
bin	-INF	0
bin	-0.5	0
bin	-0.46666666666667	0
bin	-0.43333333333333	0
bin	-0.4	0
bin	-0.36666666666667	0
bin	-0.33333333333333	0
bin	-0.3	0
bin	-0.26666666666667	0
bin	-0.23333333333333	0
bin	-0.2	0
bin	-0.16666666666667	0
bin	-0.13333333333333	0
bin	-0.1	0
bin	-0.066666666666667	0
bin	-0.033333333333333	0
bin	0	0
bin	0.033333333333333	0
bin	0.066666666666667	0
bin	0.1	0
bin	0.13333333333333	0
bin	0.16666666666667	0
bin	0.2	0
bin	0.23333333333333	0
bin	0.26666666666667	0
bin	0.3	0
bin	0.33333333333333	0
bin	0.36666666666667	0
bin	0.4	0
bin	0.43333333333333	0
bin	0.46666666666667	0
bin	0.5	0
statistic BasicTopology.peer[0].bitTorrentApp.swarmManager 	ContentManager_100_percentDownloadMarkTime:histogram
field count 0
field mean 0
field stddev -nan
field sum 0
field sqrsum 0
field min 0
field max 0
attr title  "100% Download Time Ordinate, histogram"
attr unit  s
bin	-INF	0
bin	-0.5	0
bin	-0.46666666666667	0
bin	-0.43333333333333	0
bin	-0.4	0
bin	-0.36666666666667	0
bin	-0.33333333333333	0
bin	-0.3	0
bin	-0.26666666666667	0
bin	-0.23333333333333	0
bin	-0.2	0
bin	-0.16666666666667	0
bin	-0.13333333333333	0
bin	-0.1	0
bin	-0.066666666666667	0
bin	-0.033333333333333	0
bin	0	0
bin	0.033333333333333	0
bin	0.066666666666667	0
bin	0.1	0
bin	0.13333333333333	0
bin	0.16666666666667	0
bin	0.2	0
bin	0.23333333333333	0
bin	0.26666666666667	0
bin	0.3	0
bin	0.33333333333333	0
bin	0.36666666666667	0
bin	0.4	0
bin	0.43333333333333	0
bin	0.46666666666667	0
bin	0.5	0
statistic BasicTopology.peer[0].bitTorrentApp.swarmManager 	ContentManager_75_percentDownloadMarkTime:histogram
field count 0
field mean 0
field stddev -nan
field sum 0
field sqrsum 0
field min 0
field max 0
attr title  "75% Download Time Ordinate, histogram"
attr unit  s
bin	-INF	0
bin	-0.5	0
bin	-0.46666666666667	0
bin	-0.43333333333333	0
bin	-0.4	0
bin	-0.36666666666667	0
bin	-0.33333333333333	0
bin	-0.3	0
bin	-0.26666666666667	0
bin	-0.23333333333333	0
bin	-0.2	0
bin	-0.16666666666667	0
bin	-0.13333333333333	0
bin	-0.1	0
bin	-0.066666666666667	0
bin	-0.033333333333333	0
bin	0	0
bin	0.033333333333333	0
bin	0.066666666666667	0
bin	0.1	0
bin	0.13333333333333	0
bin	0.16666666666667	0
bin	0.2	0
bin	0.23333333333333	0
bin	0.26666666666667	0
bin	0.3	0
bin	0.33333333333333	0
bin	0.36666666666667	0
bin	0.4	0
bin	0.43333333333333	0
bin	0.46666666666667	0
bin	0.5	0
statistic BasicTopology.peer[0].bitTorrentApp.swarmManager 	ContentManager_50_percentDownloadMarkTime:histogram
field count 0
field mean 0
field stddev -nan
field sum 0
field sqrsum 0
field min 0
field max 0
attr title  "50% Download Time Ordinate, histogram"
attr unit  s
bin	-INF	0
bin	-0.5	0
bin	-0.46666666666667	0
bin	-0.43333333333333	0
bin	-0.4	0
bin	-0.36666666666667	0
bin	-0.33333333333333	0
bin	-0.3	0
bin	-0.26666666666667	0
bin	-0.23333333333333	0
bin	-0.2	0
bin	-0.16666666666667	0
bin	-0.13333333333333	0
bin	-0.1	0
bin	-0.066666666666667	0
bin	-0.033333333333333	0
bin	0	0
bin	0.033333333333333	0
bin	0.066666666666667	0
bin	0.1	0
bin	0.13333333333333	0
bin	0.16666666666667	0
bin	0.2	0
bin	0.23333333333333	0
bin	0.26666666666667	0
bin	0.3	0
bin	0.33333333333333	0
bin	0.36666666666667	0
bin	0.4	0
bin	0.43333333333333	0
bin	0.46666666666667	0
bin	0.5	0
statistic BasicTopology.peer[0].bitTorrentApp.swarmManager 	ContentManager_25_percentDownloadMarkTime:histogram
field count 0
field mean 0
field stddev -nan
field sum 0
field sqrsum 0
field min 0
field max 0
attr title  "25% Download Time Ordinate, histogram"
attr unit  s
bin	-INF	0
bin	-0.5	0
bin	-0.46666666666667	0
bin	-0.43333333333333	0
bin	-0.4	0
bin	-0.36666666666667	0
bin	-0.33333333333333	0
bin	-0.3	0
bin	-0.26666666666667	0
bin	-0.23333333333333	0
bin	-0.2	0
bin	-0.16666666666667	0
bin	-0.13333333333333	0
bin	-0.1	0
bin	-0.066666666666667	0
bin	-0.033333333333333	0
bin	0	0
bin	0.033333333333333	0
bin	0.066666666666667	0
bin	0.1	0
bin	0.13333333333333	0
bin	0.16666666666667	0
bin	0.2	0
bin	0.23333333333333	0
bin	0.26666666666667	0
bin	0.3	0
bin	0.33333333333333	0
bin	0.36666666666667	0
bin	0.4	0
bin	0.43333333333333	0
bin	0.46666666666667	0
bin	0.5	0
scalar BasicTopology.peer[0].bitTorrentApp.swarmManager 	SwarmManager_EnteredSwarm:last 	-nan
attr title  "Enter Swarm Instant, last"
scalar BasicTopology.peer[0].bitTorrentApp.bitTorrentClient.contentManager_51 	ContentManager_75_percentDownloadMarkTime:last 	-nan
attr title  "75% Download Time Ordinate, last"
attr unit  s
scalar BasicTopology.peer[0].bitTorrentApp.bitTorrentClient.contentManager_51 	ContentManager_50_percentDownloadMarkTime:last 	-nan
attr title  "50% Download Time Ordinate, last"
attr unit  s
scalar BasicTopology.peer[0].bitTorrentApp.bitTorrentClient.contentManager_51 	ContentManager_25_percentDownloadMarkTime:last 	-nan
attr title  "25% Download Time Ordinate, last"
attr unit  s
statistic BasicTopology.peer[0].bitTorrentApp.bitTorrentClient 	"Piece processing time histogram"
field count 2936
field mean 0.0073639305177112
field stddev 0.0099766190078884
field sum 21.6205
field sqrsum 0.451341
field min 0
field max 0.102482
bin	-INF	0
bin	0	936
bin	0.000909091	352
bin	0.001818182	155
bin	0.002727273	108
bin	0.003636364	126
bin	0.004545455	111
bin	0.005454546	58
bin	0.006363637	55
bin	0.007272728	27
bin	0.008181819	55
bin	0.00909091	55
bin	0.010000001	85
bin	0.010909092	81
bin	0.011818183	66
bin	0.012727274	70
bin	0.013636365	71
bin	0.014545456	54
bin	0.015454547	41
bin	0.016363638	49
bin	0.017272729	44
bin	0.01818182	40
bin	0.019090911	33
bin	0.020000002	31
bin	0.020909093	22
bin	0.021818184	27
bin	0.022727275	16
bin	0.023636366	16
bin	0.024545457	14
bin	0.025454548	15
bin	0.026363639	9
bin	0.02727273	11
bin	0.028181821	11
bin	0.029090912	5
bin	0.030000003	9
bin	0.030909094	9
bin	0.031818185	3
bin	0.032727276	5
bin	0.033636367	4
bin	0.034545458	4
bin	0.035454549	4
bin	0.03636364	1
bin	0.037272731	2
bin	0.038181822	4
bin	0.039090913	3
bin	0.040000004	2
bin	0.040909095	3
bin	0.041818186	3
bin	0.042727277	3
bin	0.043636368	0
bin	0.044545459	0
bin	0.04545455	2
bin	0.046363641	1
bin	0.047272732	0
bin	0.048181823	1
bin	0.049090914	2
bin	0.05	22
scalar BasicTopology.peer[1].networkLayer.arp 	failedResolution:count 	0
attr title  "ARP failed resolutions, count"
scalar BasicTopology.peer[1].networkLayer.arp 	initiatedResolution:count 	7
attr title  "ARP initiated resolutions, count"
scalar BasicTopology.peer[1].networkLayer.arp 	sentReplies:count 	0
attr title  "ARP replies sent, count"
scalar BasicTopology.peer[1].networkLayer.arp 	sentReq:count 	7
attr title  "ARP request sent, count"
scalar BasicTopology.peer[1].wlan[0].mgmt 	dropPkByQueue:count 	936
attr interpolationmode  none
attr source  dropPkByQueue
attr title  "packets dropped by queue, count"
scalar BasicTopology.peer[1].wlan[0].mgmt 	dropPkByQueue:sum(packetBytes) 	246721
attr interpolationmode  none
attr source  dropPkByQueue
attr title  "packets dropped by queue, sum(packetBytes)"
scalar BasicTopology.peer[1].wlan[0].mgmt 	dataQueueLen:max 	10
attr interpolationmode  sample-hold
attr title  "data queue length, max"
scalar BasicTopology.peer[1].wlan[0].mgmt 	dataQueueLen:timeavg 	0.30311204620817
attr interpolationmode  sample-hold
attr title  "data queue length, timeavg"
scalar BasicTopology.peer[1].wlan[0].mac 	"number of received packets" 	57534
scalar BasicTopology.peer[1].wlan[0].mac 	"number of collisions" 	49771
scalar BasicTopology.peer[1].wlan[0].mac 	"number of internal collisions" 	0
scalar BasicTopology.peer[1].wlan[0].mac 	"number of retry for AC 0" 	39936
scalar BasicTopology.peer[1].wlan[0].mac 	"sent and receive bites" 	188925552
scalar BasicTopology.peer[1].wlan[0].mac 	"sent packet within AC 0" 	58256
scalar BasicTopology.peer[1].wlan[0].mac 	"sent in TXOP " 	0
scalar BasicTopology.peer[1].wlan[0].mac 	"sentWithoutRetry AC 0" 	40080
scalar BasicTopology.peer[1].wlan[0].mac 	"numGivenUp AC 0" 	685
scalar BasicTopology.peer[1].wlan[0].mac 	"numDropped AC 0" 	0
scalar BasicTopology.peer[1].wlan[0].radio 	lossRate:min 	0
attr interpolationmode  backward-sample-hold
attr title  "packet loss rate, min"
scalar BasicTopology.peer[1].wlan[0].radio 	lossRate:max 	0.66
attr interpolationmode  backward-sample-hold
attr title  "packet loss rate, max"
scalar BasicTopology.peer[1].wlan[0].radio 	lossRate:timeavg 	0.041654346597808
attr interpolationmode  backward-sample-hold
attr title  "packet loss rate, timeavg"
scalar BasicTopology.peer[1].wlan[0].radio 	radioState:count 	3429770
attr interpolationmode  sample-hold
attr title  "radio state (enum), count"
statistic BasicTopology.peer[1].wlan[0].radio 	channelNo:histogram
field count 0
field mean 0
field stddev -nan
field sum 0
field sqrsum 0
field min 0
field max 0
attr interpolationmode  sample-hold
attr title  "channel no, histogram"
bin	-INF	0
bin	-0.5	0
bin	-0.46666666666667	0
bin	-0.43333333333333	0
bin	-0.4	0
bin	-0.36666666666667	0
bin	-0.33333333333333	0
bin	-0.3	0
bin	-0.26666666666667	0
bin	-0.23333333333333	0
bin	-0.2	0
bin	-0.16666666666667	0
bin	-0.13333333333333	0
bin	-0.1	0
bin	-0.066666666666667	0
bin	-0.033333333333333	0
bin	0	0
bin	0.033333333333333	0
bin	0.066666666666667	0
bin	0.1	0
bin	0.13333333333333	0
bin	0.16666666666667	0
bin	0.2	0
bin	0.23333333333333	0
bin	0.26666666666667	0
bin	0.3	0
bin	0.33333333333333	0
bin	0.36666666666667	0
bin	0.4	0
bin	0.43333333333333	0
bin	0.46666666666667	0
bin	0.5	0
scalar BasicTopology.peer[1].wlan[0].radio 	bitrate:min 	-nan
attr interpolationmode  sample-hold
attr title  "tx bitrate, min"
attr unit  bps
scalar BasicTopology.peer[1].wlan[0].radio 	bitrate:max 	-nan
attr interpolationmode  sample-hold
attr title  "tx bitrate, max"
attr unit  bps
scalar BasicTopology.peer[1].wlan[0].radio 	bitrate:timeavg 	-nan
attr interpolationmode  sample-hold
attr title  "tx bitrate, timeavg"
attr unit  bps
statistic BasicTopology.peer[1].bitTorrentApp.swarmManager 	ContentManager_PieceDownloadTime:histogram
field count 0
field mean 0
field stddev -nan
field sum 0
field sqrsum 0
field min 0
field max 0
attr title  "Swarm Piece Download Time, histogram"
bin	-INF	0
bin	-0.5	0
bin	-0.46666666666667	0
bin	-0.43333333333333	0
bin	-0.4	0
bin	-0.36666666666667	0
bin	-0.33333333333333	0
bin	-0.3	0
bin	-0.26666666666667	0
bin	-0.23333333333333	0
bin	-0.2	0
bin	-0.16666666666667	0
bin	-0.13333333333333	0
bin	-0.1	0
bin	-0.066666666666667	0
bin	-0.033333333333333	0
bin	0	0
bin	0.033333333333333	0
bin	0.066666666666667	0
bin	0.1	0
bin	0.13333333333333	0
bin	0.16666666666667	0
bin	0.2	0
bin	0.23333333333333	0
bin	0.26666666666667	0
bin	0.3	0
bin	0.33333333333333	0
bin	0.36666666666667	0
bin	0.4	0
bin	0.43333333333333	0
bin	0.46666666666667	0
bin	0.5	0
statistic BasicTopology.peer[1].bitTorrentApp.swarmManager 	ContentManager_100_percentDownloadMarkTime:histogram
field count 0
field mean 0
field stddev -nan
field sum 0
field sqrsum 0
field min 0
field max 0
attr title  "100% Download Time Ordinate, histogram"
attr unit  s
bin	-INF	0
bin	-0.5	0
bin	-0.46666666666667	0
bin	-0.43333333333333	0
bin	-0.4	0
bin	-0.36666666666667	0
bin	-0.33333333333333	0
bin	-0.3	0
bin	-0.26666666666667	0
bin	-0.23333333333333	0
bin	-0.2	0
bin	-0.16666666666667	0
bin	-0.13333333333333	0
bin	-0.1	0
bin	-0.066666666666667	0
bin	-0.033333333333333	0
bin	0	0
bin	0.033333333333333	0
bin	0.066666666666667	0
bin	0.1	0
bin	0.13333333333333	0
bin	0.16666666666667	0
bin	0.2	0
bin	0.23333333333333	0
bin	0.26666666666667	0
bin	0.3	0
bin	0.33333333333333	0
bin	0.36666666666667	0
bin	0.4	0
bin	0.43333333333333	0
bin	0.46666666666667	0
bin	0.5	0
statistic BasicTopology.peer[1].bitTorrentApp.swarmManager 	ContentManager_75_percentDownloadMarkTime:histogram
field count 0
field mean 0
field stddev -nan
field sum 0
field sqrsum 0
field min 0
field max 0
attr title  "75% Download Time Ordinate, histogram"
attr unit  s
bin	-INF	0
bin	-0.5	0
bin	-0.46666666666667	0
bin	-0.43333333333333	0
bin	-0.4	0
bin	-0.36666666666667	0
bin	-0.33333333333333	0
bin	-0.3	0
bin	-0.26666666666667	0
bin	-0.23333333333333	0
bin	-0.2	0
bin	-0.16666666666667	0
bin	-0.13333333333333	0
bin	-0.1	0
bin	-0.066666666666667	0
bin	-0.033333333333333	0
bin	0	0
bin	0.033333333333333	0
bin	0.066666666666667	0
bin	0.1	0
bin	0.13333333333333	0
bin	0.16666666666667	0
bin	0.2	0
bin	0.23333333333333	0
bin	0.26666666666667	0
bin	0.3	0
bin	0.33333333333333	0
bin	0.36666666666667	0
bin	0.4	0
bin	0.43333333333333	0
bin	0.46666666666667	0
bin	0.5	0
statistic BasicTopology.peer[1].bitTorrentApp.swarmManager 	ContentManager_50_percentDownloadMarkTime:histogram
field count 0
field mean 0
field stddev -nan
field sum 0
field sqrsum 0
field min 0
field max 0
attr title  "50% Download Time Ordinate, histogram"
attr unit  s
bin	-INF	0
bin	-0.5	0
bin	-0.46666666666667	0
bin	-0.43333333333333	0
bin	-0.4	0
bin	-0.36666666666667	0
bin	-0.33333333333333	0
bin	-0.3	0
bin	-0.26666666666667	0
bin	-0.23333333333333	0
bin	-0.2	0
bin	-0.16666666666667	0
bin	-0.13333333333333	0
bin	-0.1	0
bin	-0.066666666666667	0
bin	-0.033333333333333	0
bin	0	0
bin	0.033333333333333	0
bin	0.066666666666667	0
bin	0.1	0
bin	0.13333333333333	0
bin	0.16666666666667	0
bin	0.2	0
bin	0.23333333333333	0
bin	0.26666666666667	0
bin	0.3	0
bin	0.33333333333333	0
bin	0.36666666666667	0
bin	0.4	0
bin	0.43333333333333	0
bin	0.46666666666667	0
bin	0.5	0
statistic BasicTopology.peer[1].bitTorrentApp.swarmManager 	ContentManager_25_percentDownloadMarkTime:histogram
field count 0
field mean 0
field stddev -nan
field sum 0
field sqrsum 0
field min 0
field max 0
attr title  "25% Download Time Ordinate, histogram"
attr unit  s
bin	-INF	0
bin	-0.5	0
bin	-0.46666666666667	0
bin	-0.43333333333333	0
bin	-0.4	0
bin	-0.36666666666667	0
bin	-0.33333333333333	0
bin	-0.3	0
bin	-0.26666666666667	0
bin	-0.23333333333333	0
bin	-0.2	0
bin	-0.16666666666667	0
bin	-0.13333333333333	0
bin	-0.1	0
bin	-0.066666666666667	0
bin	-0.033333333333333	0
bin	0	0
bin	0.033333333333333	0
bin	0.066666666666667	0
bin	0.1	0
bin	0.13333333333333	0
bin	0.16666666666667	0
bin	0.2	0
bin	0.23333333333333	0
bin	0.26666666666667	0
bin	0.3	0
bin	0.33333333333333	0
bin	0.36666666666667	0
bin	0.4	0
bin	0.43333333333333	0
bin	0.46666666666667	0
bin	0.5	0
scalar BasicTopology.peer[1].bitTorrentApp.swarmManager 	SwarmManager_EnteredSwarm:last 	-nan
attr title  "Enter Swarm Instant, last"
scalar BasicTopology.peer[1].bitTorrentApp.bitTorrentClient.contentManager_51 	ContentManager_75_percentDownloadMarkTime:last 	-nan
attr title  "75% Download Time Ordinate, last"
attr unit  s
scalar BasicTopology.peer[1].bitTorrentApp.bitTorrentClient.contentManager_51 	ContentManager_50_percentDownloadMarkTime:last 	-nan
attr title  "50% Download Time Ordinate, last"
attr unit  s
scalar BasicTopology.peer[1].bitTorrentApp.bitTorrentClient.contentManager_51 	ContentManager_25_percentDownloadMarkTime:last 	-nan
attr title  "25% Download Time Ordinate, last"
attr unit  s
statistic BasicTopology.peer[1].bitTorrentApp.bitTorrentClient 	"Piece processing time histogram"
field count 2936
field mean 0.0073639305177112
field stddev 0.0099766190078884
field sum 21.6205
field sqrsum 0.451341
field min 0
field max 0.102482
bin	-INF	0
bin	0	936
bin	0.000909091	352
bin	0.001818182	155
bin	0.002727273	108
bin	0.003636364	126
bin	0.004545455	111
bin	0.005454546	58
bin	0.006363637	55
bin	0.007272728	27
bin	0.008181819	55
bin	0.00909091	55
bin	0.010000001	85
bin	0.010909092	81
bin	0.011818183	66
bin	0.012727274	70
bin	0.013636365	71
bin	0.014545456	54
bin	0.015454547	41
bin	0.016363638	49
bin	0.017272729	44
bin	0.01818182	40
bin	0.019090911	33
bin	0.020000002	31
bin	0.020909093	22
bin	0.021818184	27
bin	0.022727275	16
bin	0.023636366	16
bin	0.024545457	14
bin	0.025454548	15
bin	0.026363639	9
bin	0.02727273	11
bin	0.028181821	11
bin	0.029090912	5
bin	0.030000003	9
bin	0.030909094	9
bin	0.031818185	3
bin	0.032727276	5
bin	0.033636367	4
bin	0.034545458	4
bin	0.035454549	4
bin	0.03636364	1
bin	0.037272731	2
bin	0.038181822	4
bin	0.039090913	3
bin	0.040000004	2
bin	0.040909095	3
bin	0.041818186	3
bin	0.042727277	3
bin	0.043636368	0
bin	0.044545459	0
bin	0.04545455	2
bin	0.046363641	1
bin	0.047272732	0
bin	0.048181823	1
bin	0.049090914	2
bin	0.05	22
scalar BasicTopology.peer[2].networkLayer.arp 	failedResolution:count 	0
attr title  "ARP failed resolutions, count"
scalar BasicTopology.peer[2].networkLayer.arp 	initiatedResolution:count 	10
attr title  "ARP initiated resolutions, count"
scalar BasicTopology.peer[2].networkLayer.arp 	sentReplies:count 	0
attr title  "ARP replies sent, count"
scalar BasicTopology.peer[2].networkLayer.arp 	sentReq:count 	10
attr title  "ARP request sent, count"
scalar BasicTopology.peer[2].wlan[0].mgmt 	dropPkByQueue:count 	672
attr interpolationmode  none
attr source  dropPkByQueue
attr title  "packets dropped by queue, count"
scalar BasicTopology.peer[2].wlan[0].mgmt 	dropPkByQueue:sum(packetBytes) 	119771
attr interpolationmode  none
attr source  dropPkByQueue
attr title  "packets dropped by queue, sum(packetBytes)"
scalar BasicTopology.peer[2].wlan[0].mgmt 	dataQueueLen:max 	10
attr interpolationmode  sample-hold
attr title  "data queue length, max"
scalar BasicTopology.peer[2].wlan[0].mgmt 	dataQueueLen:timeavg 	0.19636867395791
attr interpolationmode  sample-hold
attr title  "data queue length, timeavg"
scalar BasicTopology.peer[2].wlan[0].mac 	"number of received packets" 	50100
scalar BasicTopology.peer[2].wlan[0].mac 	"number of collisions" 	94508
scalar BasicTopology.peer[2].wlan[0].mac 	"number of internal collisions" 	0
scalar BasicTopology.peer[2].wlan[0].mac 	"number of retry for AC 0" 	38858
scalar BasicTopology.peer[2].wlan[0].mac 	"sent and receive bites" 	130871000
scalar BasicTopology.peer[2].wlan[0].mac 	"sent packet within AC 0" 	50644
scalar BasicTopology.peer[2].wlan[0].mac 	"sent in TXOP " 	0
scalar BasicTopology.peer[2].wlan[0].mac 	"sentWithoutRetry AC 0" 	33353
scalar BasicTopology.peer[2].wlan[0].mac 	"numGivenUp AC 0" 	663
scalar BasicTopology.peer[2].wlan[0].mac 	"numDropped AC 0" 	0
scalar BasicTopology.peer[2].wlan[0].radio 	lossRate:min 	0
attr interpolationmode  backward-sample-hold
attr title  "packet loss rate, min"
scalar BasicTopology.peer[2].wlan[0].radio 	lossRate:max 	0.56
attr interpolationmode  backward-sample-hold
attr title  "packet loss rate, max"
scalar BasicTopology.peer[2].wlan[0].radio 	lossRate:timeavg 	0.071226779659515
attr interpolationmode  backward-sample-hold
attr title  "packet loss rate, timeavg"
scalar BasicTopology.peer[2].wlan[0].radio 	radioState:count 	4113220
attr interpolationmode  sample-hold
attr title  "radio state (enum), count"
statistic BasicTopology.peer[2].wlan[0].radio 	channelNo:histogram
field count 0
field mean 0
field stddev -nan
field sum 0
field sqrsum 0
field min 0
field max 0
attr interpolationmode  sample-hold
attr title  "channel no, histogram"
bin	-INF	0
bin	-0.5	0
bin	-0.46666666666667	0
bin	-0.43333333333333	0
bin	-0.4	0
bin	-0.36666666666667	0
bin	-0.33333333333333	0
bin	-0.3	0
bin	-0.26666666666667	0
bin	-0.23333333333333	0
bin	-0.2	0
bin	-0.16666666666667	0
bin	-0.13333333333333	0
bin	-0.1	0
bin	-0.066666666666667	0
bin	-0.033333333333333	0
bin	0	0
bin	0.033333333333333	0
bin	0.066666666666667	0
bin	0.1	0
bin	0.13333333333333	0
bin	0.16666666666667	0
bin	0.2	0
bin	0.23333333333333	0
bin	0.26666666666667	0
bin	0.3	0
bin	0.33333333333333	0
bin	0.36666666666667	0
bin	0.4	0
bin	0.43333333333333	0
bin	0.46666666666667	0
bin	0.5	0
scalar BasicTopology.peer[2].wlan[0].radio 	bitrate:min 	-nan
attr interpolationmode  sample-hold
attr title  "tx bitrate, min"
attr unit  bps
scalar BasicTopology.peer[2].wlan[0].radio 	bitrate:max 	-nan
attr interpolationmode  sample-hold
attr title  "tx bitrate, max"
attr unit  bps
scalar BasicTopology.peer[2].wlan[0].radio 	bitrate:timeavg 	-nan
attr interpolationmode  sample-hold
attr title  "tx bitrate, timeavg"
attr unit  bps
statistic BasicTopology.peer[2].bitTorrentApp.swarmManager 	ContentManager_PieceDownloadTime:histogram
field count 0
field mean 0
field stddev -nan
field sum 0
field sqrsum 0
field min 0
field max 0
attr title  "Swarm Piece Download Time, histogram"
bin	-INF	0
bin	-0.5	0
bin	-0.46666666666667	0
bin	-0.43333333333333	0
bin	-0.4	0
bin	-0.36666666666667	0
bin	-0.33333333333333	0
bin	-0.3	0
bin	-0.26666666666667	0
bin	-0.23333333333333	0
bin	-0.2	0
bin	-0.16666666666667	0
bin	-0.13333333333333	0
bin	-0.1	0
bin	-0.066666666666667	0
bin	-0.033333333333333	0
bin	0	0
bin	0.033333333333333	0
bin	0.066666666666667	0
bin	0.1	0
bin	0.13333333333333	0
bin	0.16666666666667	0
bin	0.2	0
bin	0.23333333333333	0
bin	0.26666666666667	0
bin	0.3	0
bin	0.33333333333333	0
bin	0.36666666666667	0
bin	0.4	0
bin	0.43333333333333	0
bin	0.46666666666667	0
bin	0.5	0
statistic BasicTopology.peer[2].bitTorrentApp.swarmManager 	ContentManager_100_percentDownloadMarkTime:histogram
field count 0
field mean 0
field stddev -nan
field sum 0
field sqrsum 0
field min 0
field max 0
attr title  "100% Download Time Ordinate, histogram"
attr unit  s
bin	-INF	0
bin	-0.5	0
bin	-0.46666666666667	0
bin	-0.43333333333333	0
bin	-0.4	0
bin	-0.36666666666667	0
bin	-0.33333333333333	0
bin	-0.3	0
bin	-0.26666666666667	0
bin	-0.23333333333333	0
bin	-0.2	0
bin	-0.16666666666667	0
bin	-0.13333333333333	0
bin	-0.1	0
bin	-0.066666666666667	0
bin	-0.033333333333333	0
bin	0	0
bin	0.033333333333333	0
bin	0.066666666666667	0
bin	0.1	0
bin	0.13333333333333	0
bin	0.16666666666667	0
bin	0.2	0
bin	0.23333333333333	0
bin	0.26666666666667	0
bin	0.3	0
bin	0.33333333333333	0
bin	0.36666666666667	0
bin	0.4	0
bin	0.43333333333333	0
bin	0.46666666666667	0
bin	0.5	0
statistic BasicTopology.peer[2].bitTorrentApp.swarmManager 	ContentManager_75_percentDownloadMarkTime:histogram
field count 0
field mean 0
field stddev -nan
field sum 0
field sqrsum 0
field min 0
field max 0
attr title  "75% Download Time Ordinate, histogram"
attr unit  s
bin	-INF	0
bin	-0.5	0
bin	-0.46666666666667	0
bin	-0.43333333333333	0
bin	-0.4	0
bin	-0.36666666666667	0
bin	-0.33333333333333	0
bin	-0.3	0
bin	-0.26666666666667	0
bin	-0.23333333333333	0
bin	-0.2	0
bin	-0.16666666666667	0
bin	-0.13333333333333	0
bin	-0.1	0
bin	-0.066666666666667	0
bin	-0.033333333333333	0
bin	0	0
bin	0.033333333333333	0
bin	0.066666666666667	0
bin	0.1	0
bin	0.13333333333333	0
bin	0.16666666666667	0
bin	0.2	0
bin	0.23333333333333	0
bin	0.26666666666667	0
bin	0.3	0
bin	0.33333333333333	0
bin	0.36666666666667	0
bin	0.4	0
bin	0.43333333333333	0
bin	0.46666666666667	0
bin	0.5	0
statistic BasicTopology.peer[2].bitTorrentApp.swarmManager 	ContentManager_50_percentDownloadMarkTime:histogram
field count 0
field mean 0
field stddev -nan
field sum 0
field sqrsum 0
field min 0
field max 0
attr title  "50% Download Time Ordinate, histogram"
attr unit  s
bin	-INF	0
bin	-0.5	0
bin	-0.46666666666667	0
bin	-0.43333333333333	0
bin	-0.4	0
bin	-0.36666666666667	0
bin	-0.33333333333333	0
bin	-0.3	0
bin	-0.26666666666667	0
bin	-0.23333333333333	0
bin	-0.2	0
bin	-0.16666666666667	0
bin	-0.13333333333333	0
bin	-0.1	0
bin	-0.066666666666667	0
bin	-0.033333333333333	0
bin	0	0
bin	0.033333333333333	0
bin	0.066666666666667	0
bin	0.1	0
bin	0.13333333333333	0
bin	0.16666666666667	0
bin	0.2	0
bin	0.23333333333333	0
bin	0.26666666666667	0
bin	0.3	0
bin	0.33333333333333	0
bin	0.36666666666667	0
bin	0.4	0
bin	0.43333333333333	0
bin	0.46666666666667	0
bin	0.5	0
statistic BasicTopology.peer[2].bitTorrentApp.swarmManager 	ContentManager_25_percentDownloadMarkTime:histogram
field count 0
field mean 0
field stddev -nan
field sum 0
field sqrsum 0
field min 0
field max 0
attr title  "25% Download Time Ordinate, histogram"
attr unit  s
bin	-INF	0
bin	-0.5	0
bin	-0.46666666666667	0
bin	-0.43333333333333	0
bin	-0.4	0
bin	-0.36666666666667	0
bin	-0.33333333333333	0
bin	-0.3	0
bin	-0.26666666666667	0
bin	-0.23333333333333	0
bin	-0.2	0
bin	-0.16666666666667	0
bin	-0.13333333333333	0
bin	-0.1	0
bin	-0.066666666666667	0
bin	-0.033333333333333	0
bin	0	0
bin	0.033333333333333	0
bin	0.066666666666667	0
bin	0.1	0
bin	0.13333333333333	0
bin	0.16666666666667	0
bin	0.2	0
bin	0.23333333333333	0
bin	0.26666666666667	0
bin	0.3	0
bin	0.33333333333333	0
bin	0.36666666666667	0
bin	0.4	0
bin	0.43333333333333	0
bin	0.46666666666667	0
bin	0.5	0
scalar BasicTopology.peer[2].bitTorrentApp.swarmManager 	SwarmManager_EnteredSwarm:last 	-nan
attr title  "Enter Swarm Instant, last"
scalar BasicTopology.peer[2].bitTorrentApp.bitTorrentClient.contentManager_51 	ContentManager_75_percentDownloadMarkTime:last 	-nan
attr title  "75% Download Time Ordinate, last"
attr unit  s
scalar BasicTopology.peer[2].bitTorrentApp.bitTorrentClient.contentManager_51 	ContentManager_50_percentDownloadMarkTime:last 	-nan
attr title  "50% Download Time Ordinate, last"
attr unit  s
scalar BasicTopology.peer[2].bitTorrentApp.bitTorrentClient.contentManager_51 	ContentManager_25_percentDownloadMarkTime:last 	-nan
attr title  "25% Download Time Ordinate, last"
attr unit  s
statistic BasicTopology.peer[2].bitTorrentApp.bitTorrentClient 	"Piece processing time histogram"
field count 2936
field mean 0.0073639305177112
field stddev 0.0099766190078884
field sum 21.6205
field sqrsum 0.451341
field min 0
field max 0.102482
bin	-INF	0
bin	0	936
bin	0.000909091	352
bin	0.001818182	155
bin	0.002727273	108
bin	0.003636364	126
bin	0.004545455	111
bin	0.005454546	58
bin	0.006363637	55
bin	0.007272728	27
bin	0.008181819	55
bin	0.00909091	55
bin	0.010000001	85
bin	0.010909092	81
bin	0.011818183	66
bin	0.012727274	70
bin	0.013636365	71
bin	0.014545456	54
bin	0.015454547	41
bin	0.016363638	49
bin	0.017272729	44
bin	0.01818182	40
bin	0.019090911	33
bin	0.020000002	31
bin	0.020909093	22
bin	0.021818184	27
bin	0.022727275	16
bin	0.023636366	16
bin	0.024545457	14
bin	0.025454548	15
bin	0.026363639	9
bin	0.02727273	11
bin	0.028181821	11
bin	0.029090912	5
bin	0.030000003	9
bin	0.030909094	9
bin	0.031818185	3
bin	0.032727276	5
bin	0.033636367	4
bin	0.034545458	4
bin	0.035454549	4
bin	0.03636364	1
bin	0.037272731	2
bin	0.038181822	4
bin	0.039090913	3
bin	0.040000004	2
bin	0.040909095	3
bin	0.041818186	3
bin	0.042727277	3
bin	0.043636368	0
bin	0.044545459	0
bin	0.04545455	2
bin	0.046363641	1
bin	0.047272732	0
bin	0.048181823	1
bin	0.049090914	2
bin	0.05	22
scalar BasicTopology.peer[3].networkLayer.arp 	failedResolution:count 	0
attr title  "ARP failed resolutions, count"
scalar BasicTopology.peer[3].networkLayer.arp 	initiatedResolution:count 	5
attr title  "ARP initiated resolutions, count"
scalar BasicTopology.peer[3].networkLayer.arp 	sentReplies:count 	0
attr title  "ARP replies sent, count"
scalar BasicTopology.peer[3].networkLayer.arp 	sentReq:count 	5
attr title  "ARP request sent, count"
scalar BasicTopology.peer[3].wlan[0].mgmt 	dropPkByQueue:count 	1739
attr interpolationmode  none
attr source  dropPkByQueue
attr title  "packets dropped by queue, count"
scalar BasicTopology.peer[3].wlan[0].mgmt 	dropPkByQueue:sum(packetBytes) 	506431
attr interpolationmode  none
attr source  dropPkByQueue
attr title  "packets dropped by queue, sum(packetBytes)"
scalar BasicTopology.peer[3].wlan[0].mgmt 	dataQueueLen:max 	10
attr interpolationmode  sample-hold
attr title  "data queue length, max"
scalar BasicTopology.peer[3].wlan[0].mgmt 	dataQueueLen:timeavg 	0.55576557419809
attr interpolationmode  sample-hold
attr title  "data queue length, timeavg"
scalar BasicTopology.peer[3].wlan[0].mac 	"number of received packets" 	102343
scalar BasicTopology.peer[3].wlan[0].mac 	"number of collisions" 	88392
scalar BasicTopology.peer[3].wlan[0].mac 	"number of internal collisions" 	0
scalar BasicTopology.peer[3].wlan[0].mac 	"number of retry for AC 0" 	82695
scalar BasicTopology.peer[3].wlan[0].mac 	"sent and receive bites" 	278938776
scalar BasicTopology.peer[3].wlan[0].mac 	"sent packet within AC 0" 	101225
scalar BasicTopology.peer[3].wlan[0].mac 	"sent in TXOP " 	0
scalar BasicTopology.peer[3].wlan[0].mac 	"sentWithoutRetry AC 0" 	64154
scalar BasicTopology.peer[3].wlan[0].mac 	"numGivenUp AC 0" 	1177
scalar BasicTopology.peer[3].wlan[0].mac 	"numDropped AC 0" 	0
scalar BasicTopology.peer[3].wlan[0].radio 	lossRate:min 	0
attr interpolationmode  backward-sample-hold
attr title  "packet loss rate, min"
scalar BasicTopology.peer[3].wlan[0].radio 	lossRate:max 	0.56
attr interpolationmode  backward-sample-hold
attr title  "packet loss rate, max"
scalar BasicTopology.peer[3].wlan[0].radio 	lossRate:timeavg 	0.074250749472932
attr interpolationmode  backward-sample-hold
attr title  "packet loss rate, timeavg"
scalar BasicTopology.peer[3].wlan[0].radio 	radioState:count 	4584830
attr interpolationmode  sample-hold
attr title  "radio state (enum), count"
statistic BasicTopology.peer[3].wlan[0].radio 	channelNo:histogram
field count 0
field mean 0
field stddev -nan
field sum 0
field sqrsum 0
field min 0
field max 0
attr interpolationmode  sample-hold
attr title  "channel no, histogram"
bin	-INF	0
bin	-0.5	0
bin	-0.46666666666667	0
bin	-0.43333333333333	0
bin	-0.4	0
bin	-0.36666666666667	0
bin	-0.33333333333333	0
bin	-0.3	0
bin	-0.26666666666667	0
bin	-0.23333333333333	0
bin	-0.2	0
bin	-0.16666666666667	0
bin	-0.13333333333333	0
bin	-0.1	0
bin	-0.066666666666667	0
bin	-0.033333333333333	0
bin	0	0
bin	0.033333333333333	0
bin	0.066666666666667	0
bin	0.1	0
bin	0.13333333333333	0
bin	0.16666666666667	0
bin	0.2	0
bin	0.23333333333333	0
bin	0.26666666666667	0
bin	0.3	0
bin	0.33333333333333	0
bin	0.36666666666667	0
bin	0.4	0
bin	0.43333333333333	0
bin	0.46666666666667	0
bin	0.5	0
scalar BasicTopology.peer[3].wlan[0].radio 	bitrate:min 	-nan
attr interpolationmode  sample-hold
attr title  "tx bitrate, min"
attr unit  bps
scalar BasicTopology.peer[3].wlan[0].radio 	bitrate:max 	-nan
attr interpolationmode  sample-hold
attr title  "tx bitrate, max"
attr unit  bps
scalar BasicTopology.peer[3].wlan[0].radio 	bitrate:timeavg 	-nan
attr interpolationmode  sample-hold
attr title  "tx bitrate, timeavg"
attr unit  bps
statistic BasicTopology.peer[3].bitTorrentApp.swarmManager 	ContentManager_PieceDownloadTime:histogram
field count 0
field mean 0
field stddev -nan
field sum 0
field sqrsum 0
field min 0
field max 0
attr title  "Swarm Piece Download Time, histogram"
bin	-INF	0
bin	-0.5	0
bin	-0.46666666666667	0
bin	-0.43333333333333	0
bin	-0.4	0
bin	-0.36666666666667	0
bin	-0.33333333333333	0
bin	-0.3	0
bin	-0.26666666666667	0
bin	-0.23333333333333	0
bin	-0.2	0
bin	-0.16666666666667	0
bin	-0.13333333333333	0
bin	-0.1	0
bin	-0.066666666666667	0
bin	-0.033333333333333	0
bin	0	0
bin	0.033333333333333	0
bin	0.066666666666667	0
bin	0.1	0
bin	0.13333333333333	0
bin	0.16666666666667	0
bin	0.2	0
bin	0.23333333333333	0
bin	0.26666666666667	0
bin	0.3	0
bin	0.33333333333333	0
bin	0.36666666666667	0
bin	0.4	0
bin	0.43333333333333	0
bin	0.46666666666667	0
bin	0.5	0
statistic BasicTopology.peer[3].bitTorrentApp.swarmManager 	ContentManager_100_percentDownloadMarkTime:histogram
field count 0
field mean 0
field stddev -nan
field sum 0
field sqrsum 0
field min 0
field max 0
attr title  "100% Download Time Ordinate, histogram"
attr unit  s
bin	-INF	0
bin	-0.5	0
bin	-0.46666666666667	0
bin	-0.43333333333333	0
bin	-0.4	0
bin	-0.36666666666667	0
bin	-0.33333333333333	0
bin	-0.3	0
bin	-0.26666666666667	0
bin	-0.23333333333333	0
bin	-0.2	0
bin	-0.16666666666667	0
bin	-0.13333333333333	0
bin	-0.1	0
bin	-0.066666666666667	0
bin	-0.033333333333333	0
bin	0	0
bin	0.033333333333333	0
bin	0.066666666666667	0
bin	0.1	0
bin	0.13333333333333	0
bin	0.16666666666667	0
bin	0.2	0
bin	0.23333333333333	0
bin	0.26666666666667	0
bin	0.3	0
bin	0.33333333333333	0
bin	0.36666666666667	0
bin	0.4	0
bin	0.43333333333333	0
bin	0.46666666666667	0
bin	0.5	0
statistic BasicTopology.peer[3].bitTorrentApp.swarmManager 	ContentManager_75_percentDownloadMarkTime:histogram
field count 0
field mean 0
field stddev -nan
field sum 0
field sqrsum 0
field min 0
field max 0
attr title  "75% Download Time Ordinate, histogram"
attr unit  s
bin	-INF	0
bin	-0.5	0
bin	-0.46666666666667	0
bin	-0.43333333333333	0
bin	-0.4	0
bin	-0.36666666666667	0
bin	-0.33333333333333	0
bin	-0.3	0
bin	-0.26666666666667	0
bin	-0.23333333333333	0
bin	-0.2	0
bin	-0.16666666666667	0
bin	-0.13333333333333	0
bin	-0.1	0
bin	-0.066666666666667	0
bin	-0.033333333333333	0
bin	0	0
bin	0.033333333333333	0
bin	0.066666666666667	0
bin	0.1	0
bin	0.13333333333333	0
bin	0.16666666666667	0
bin	0.2	0
bin	0.23333333333333	0
bin	0.26666666666667	0
bin	0.3	0
bin	0.33333333333333	0
bin	0.36666666666667	0
bin	0.4	0
bin	0.43333333333333	0
bin	0.46666666666667	0
bin	0.5	0
statistic BasicTopology.peer[3].bitTorrentApp.swarmManager 	ContentManager_50_percentDownloadMarkTime:histogram
field count 0
field mean 0
field stddev -nan
field sum 0
field sqrsum 0
field min 0
field max 0
attr title  "50% Download Time Ordinate, histogram"
attr unit  s
bin	-INF	0
bin	-0.5	0
bin	-0.46666666666667	0
bin	-0.43333333333333	0
bin	-0.4	0
bin	-0.36666666666667	0
bin	-0.33333333333333	0
bin	-0.3	0
bin	-0.26666666666667	0
bin	-0.23333333333333	0
bin	-0.2	0
bin	-0.16666666666667	0
bin	-0.13333333333333	0
bin	-0.1	0
bin	-0.066666666666667	0
bin	-0.033333333333333	0
bin	0	0
bin	0.033333333333333	0
bin	0.066666666666667	0
bin	0.1	0
bin	0.13333333333333	0
bin	0.16666666666667	0
bin	0.2	0
bin	0.23333333333333	0
bin	0.26666666666667	0
bin	0.3	0
bin	0.33333333333333	0
bin	0.36666666666667	0
bin	0.4	0
bin	0.43333333333333	0
bin	0.46666666666667	0
bin	0.5	0
statistic BasicTopology.peer[3].bitTorrentApp.swarmManager 	ContentManager_25_percentDownloadMarkTime:histogram
field count 0
field mean 0
field stddev -nan
field sum 0
field sqrsum 0
field min 0
field max 0
attr title  "25% Download Time Ordinate, histogram"
attr unit  s
bin	-INF	0
bin	-0.5	0
bin	-0.46666666666667	0
bin	-0.43333333333333	0
bin	-0.4	0
bin	-0.36666666666667	0
bin	-0.33333333333333	0
bin	-0.3	0
bin	-0.26666666666667	0
bin	-0.23333333333333	0
bin	-0.2	0
bin	-0.16666666666667	0
bin	-0.13333333333333	0
bin	-0.1	0
bin	-0.066666666666667	0
bin	-0.033333333333333	0
bin	0	0
bin	0.033333333333333	0
bin	0.066666666666667	0
bin	0.1	0
bin	0.13333333333333	0
bin	0.16666666666667	0
bin	0.2	0
bin	0.23333333333333	0
bin	0.26666666666667	0
bin	0.3	0
bin	0.33333333333333	0
bin	0.36666666666667	0
bin	0.4	0
bin	0.43333333333333	0
bin	0.46666666666667	0
bin	0.5	0
scalar BasicTopology.peer[3].bitTorrentApp.swarmManager 	SwarmManager_EnteredSwarm:last 	-nan
attr title  "Enter Swarm Instant, last"
scalar BasicTopology.peer[3].bitTorrentApp.bitTorrentClient.contentManager_51 	ContentManager_75_percentDownloadMarkTime:last 	-nan
attr title  "75% Download Time Ordinate, last"
attr unit  s
scalar BasicTopology.peer[3].bitTorrentApp.bitTorrentClient.contentManager_51 	ContentManager_50_percentDownloadMarkTime:last 	-nan
attr title  "50% Download Time Ordinate, last"
attr unit  s
scalar BasicTopology.peer[3].bitTorrentApp.bitTorrentClient.contentManager_51 	ContentManager_25_percentDownloadMarkTime:last 	-nan
attr title  "25% Download Time Ordinate, last"
attr unit  s
statistic BasicTopology.peer[3].bitTorrentApp.bitTorrentClient 	"Piece processing time histogram"
field count 2936
field mean 0.0073639305177112
field stddev 0.0099766190078884
field sum 21.6205
field sqrsum 0.451341
field min 0
field max 0.102482
bin	-INF	0
bin	0	936
bin	0.000909091	352
bin	0.001818182	155
bin	0.002727273	108
bin	0.003636364	126
bin	0.004545455	111
bin	0.005454546	58
bin	0.006363637	55
bin	0.007272728	27
bin	0.008181819	55
bin	0.00909091	55
bin	0.010000001	85
bin	0.010909092	81
bin	0.011818183	66
bin	0.012727274	70
bin	0.013636365	71
bin	0.014545456	54
bin	0.015454547	41
bin	0.016363638	49
bin	0.017272729	44
bin	0.01818182	40
bin	0.019090911	33
bin	0.020000002	31
bin	0.020909093	22
bin	0.021818184	27
bin	0.022727275	16
bin	0.023636366	16
bin	0.024545457	14
bin	0.025454548	15
bin	0.026363639	9
bin	0.02727273	11
bin	0.028181821	11
bin	0.029090912	5
bin	0.030000003	9
bin	0.030909094	9
bin	0.031818185	3
bin	0.032727276	5
bin	0.033636367	4
bin	0.034545458	4
bin	0.035454549	4
bin	0.03636364	1
bin	0.037272731	2
bin	0.038181822	4
bin	0.039090913	3
bin	0.040000004	2
bin	0.040909095	3
bin	0.041818186	3
bin	0.042727277	3
bin	0.043636368	0
bin	0.044545459	0
bin	0.04545455	2
bin	0.046363641	1
bin	0.047272732	0
bin	0.048181823	1
bin	0.049090914	2
bin	0.05	22
scalar BasicTopology.peer[4].networkLayer.arp 	failedResolution:count 	0
attr title  "ARP failed resolutions, count"
scalar BasicTopology.peer[4].networkLayer.arp 	initiatedResolution:count 	6
attr title  "ARP initiated resolutions, count"
scalar BasicTopology.peer[4].networkLayer.arp 	sentReplies:count 	0
attr title  "ARP replies sent, count"
scalar BasicTopology.peer[4].networkLayer.arp 	sentReq:count 	7
attr title  "ARP request sent, count"
scalar BasicTopology.peer[4].wlan[0].mgmt 	dropPkByQueue:count 	1043
attr interpolationmode  none
attr source  dropPkByQueue
attr title  "packets dropped by queue, count"
scalar BasicTopology.peer[4].wlan[0].mgmt 	dropPkByQueue:sum(packetBytes) 	191215
attr interpolationmode  none
attr source  dropPkByQueue
attr title  "packets dropped by queue, sum(packetBytes)"
scalar BasicTopology.peer[4].wlan[0].mgmt 	dataQueueLen:max 	10
attr interpolationmode  sample-hold
attr title  "data queue length, max"
scalar BasicTopology.peer[4].wlan[0].mgmt 	dataQueueLen:timeavg 	0.24702858262125
attr interpolationmode  sample-hold
attr title  "data queue length, timeavg"
scalar BasicTopology.peer[4].wlan[0].mac 	"number of received packets" 	78488
scalar BasicTopology.peer[4].wlan[0].mac 	"number of collisions" 	94398
scalar BasicTopology.peer[4].wlan[0].mac 	"number of internal collisions" 	0
scalar BasicTopology.peer[4].wlan[0].mac 	"number of retry for AC 0" 	45901
scalar BasicTopology.peer[4].wlan[0].mac 	"sent and receive bites" 	198793096
scalar BasicTopology.peer[4].wlan[0].mac 	"sent packet within AC 0" 	77669
scalar BasicTopology.peer[4].wlan[0].mac 	"sent in TXOP " 	0
scalar BasicTopology.peer[4].wlan[0].mac 	"sentWithoutRetry AC 0" 	54518
scalar BasicTopology.peer[4].wlan[0].mac 	"numGivenUp AC 0" 	507
scalar BasicTopology.peer[4].wlan[0].mac 	"numDropped AC 0" 	0
scalar BasicTopology.peer[4].wlan[0].radio 	lossRate:min 	0
attr interpolationmode  backward-sample-hold
attr title  "packet loss rate, min"
scalar BasicTopology.peer[4].wlan[0].radio 	lossRate:max 	0.52
attr interpolationmode  backward-sample-hold
attr title  "packet loss rate, max"
scalar BasicTopology.peer[4].wlan[0].radio 	lossRate:timeavg 	0.069732083376051
attr interpolationmode  backward-sample-hold
attr title  "packet loss rate, timeavg"
scalar BasicTopology.peer[4].wlan[0].radio 	radioState:count 	4586102
attr interpolationmode  sample-hold
attr title  "radio state (enum), count"
statistic BasicTopology.peer[4].wlan[0].radio 	channelNo:histogram
field count 0
field mean 0
field stddev -nan
field sum 0
field sqrsum 0
field min 0
field max 0
attr interpolationmode  sample-hold
attr title  "channel no, histogram"
bin	-INF	0
bin	-0.5	0
bin	-0.46666666666667	0
bin	-0.43333333333333	0
bin	-0.4	0
bin	-0.36666666666667	0
bin	-0.33333333333333	0
bin	-0.3	0
bin	-0.26666666666667	0
bin	-0.23333333333333	0
bin	-0.2	0
bin	-0.16666666666667	0
bin	-0.13333333333333	0
bin	-0.1	0
bin	-0.066666666666667	0
bin	-0.033333333333333	0
bin	0	0
bin	0.033333333333333	0
bin	0.066666666666667	0
bin	0.1	0
bin	0.13333333333333	0
bin	0.16666666666667	0
bin	0.2	0
bin	0.23333333333333	0
bin	0.26666666666667	0
bin	0.3	0
bin	0.33333333333333	0
bin	0.36666666666667	0
bin	0.4	0
bin	0.43333333333333	0
bin	0.46666666666667	0
bin	0.5	0
scalar BasicTopology.peer[4].wlan[0].radio 	bitrate:min 	-nan
attr interpolationmode  sample-hold
attr title  "tx bitrate, min"
attr unit  bps
scalar BasicTopology.peer[4].wlan[0].radio 	bitrate:max 	-nan
attr interpolationmode  sample-hold
attr title  "tx bitrate, max"
attr unit  bps
scalar BasicTopology.peer[4].wlan[0].radio 	bitrate:timeavg 	-nan
attr interpolationmode  sample-hold
attr title  "tx bitrate, timeavg"
attr unit  bps
statistic BasicTopology.peer[4].bitTorrentApp.swarmManager 	ContentManager_PieceDownloadTime:histogram
field count 0
field mean 0
field stddev -nan
field sum 0
field sqrsum 0
field min 0
field max 0
attr title  "Swarm Piece Download Time, histogram"
bin	-INF	0
bin	-0.5	0
bin	-0.46666666666667	0
bin	-0.43333333333333	0
bin	-0.4	0
bin	-0.36666666666667	0
bin	-0.33333333333333	0
bin	-0.3	0
bin	-0.26666666666667	0
bin	-0.23333333333333	0
bin	-0.2	0
bin	-0.16666666666667	0
bin	-0.13333333333333	0
bin	-0.1	0
bin	-0.066666666666667	0
bin	-0.033333333333333	0
bin	0	0
bin	0.033333333333333	0
bin	0.066666666666667	0
bin	0.1	0
bin	0.13333333333333	0
bin	0.16666666666667	0
bin	0.2	0
bin	0.23333333333333	0
bin	0.26666666666667	0
bin	0.3	0
bin	0.33333333333333	0
bin	0.36666666666667	0
bin	0.4	0
bin	0.43333333333333	0
bin	0.46666666666667	0
bin	0.5	0
statistic BasicTopology.peer[4].bitTorrentApp.swarmManager 	ContentManager_100_percentDownloadMarkTime:histogram
field count 0
field mean 0
field stddev -nan
field sum 0
field sqrsum 0
field min 0
field max 0
attr title  "100% Download Time Ordinate, histogram"
attr unit  s
bin	-INF	0
bin	-0.5	0
bin	-0.46666666666667	0
bin	-0.43333333333333	0
bin	-0.4	0
bin	-0.36666666666667	0
bin	-0.33333333333333	0
bin	-0.3	0
bin	-0.26666666666667	0
bin	-0.23333333333333	0
bin	-0.2	0
bin	-0.16666666666667	0
bin	-0.13333333333333	0
bin	-0.1	0
bin	-0.066666666666667	0
bin	-0.033333333333333	0
bin	0	0
bin	0.033333333333333	0
bin	0.066666666666667	0
bin	0.1	0
bin	0.13333333333333	0
bin	0.16666666666667	0
bin	0.2	0
bin	0.23333333333333	0
bin	0.26666666666667	0
bin	0.3	0
bin	0.33333333333333	0
bin	0.36666666666667	0
bin	0.4	0
bin	0.43333333333333	0
bin	0.46666666666667	0
bin	0.5	0
statistic BasicTopology.peer[4].bitTorrentApp.swarmManager 	ContentManager_75_percentDownloadMarkTime:histogram
field count 0
field mean 0
field stddev -nan
field sum 0
field sqrsum 0
field min 0
field max 0
attr title  "75% Download Time Ordinate, histogram"
attr unit  s
bin	-INF	0
bin	-0.5	0
bin	-0.46666666666667	0
bin	-0.43333333333333	0
bin	-0.4	0
bin	-0.36666666666667	0
bin	-0.33333333333333	0
bin	-0.3	0
bin	-0.26666666666667	0
bin	-0.23333333333333	0
bin	-0.2	0
bin	-0.16666666666667	0
bin	-0.13333333333333	0
bin	-0.1	0
bin	-0.066666666666667	0
bin	-0.033333333333333	0
bin	0	0
bin	0.033333333333333	0
bin	0.066666666666667	0
bin	0.1	0
bin	0.13333333333333	0
bin	0.16666666666667	0
bin	0.2	0
bin	0.23333333333333	0
bin	0.26666666666667	0
bin	0.3	0
bin	0.33333333333333	0
bin	0.36666666666667	0
bin	0.4	0
bin	0.43333333333333	0
bin	0.46666666666667	0
bin	0.5	0
statistic BasicTopology.peer[4].bitTorrentApp.swarmManager 	ContentManager_50_percentDownloadMarkTime:histogram
field count 0
field mean 0
field stddev -nan
field sum 0
field sqrsum 0
field min 0
field max 0
attr title  "50% Download Time Ordinate, histogram"
attr unit  s
bin	-INF	0
bin	-0.5	0
bin	-0.46666666666667	0
bin	-0.43333333333333	0
bin	-0.4	0
bin	-0.36666666666667	0
bin	-0.33333333333333	0
bin	-0.3	0
bin	-0.26666666666667	0
bin	-0.23333333333333	0
bin	-0.2	0
bin	-0.16666666666667	0
bin	-0.13333333333333	0
bin	-0.1	0
bin	-0.066666666666667	0
bin	-0.033333333333333	0
bin	0	0
bin	0.033333333333333	0
bin	0.066666666666667	0
bin	0.1	0
bin	0.13333333333333	0
bin	0.16666666666667	0
bin	0.2	0
bin	0.23333333333333	0
bin	0.26666666666667	0
bin	0.3	0
bin	0.33333333333333	0
bin	0.36666666666667	0
bin	0.4	0
bin	0.43333333333333	0
bin	0.46666666666667	0
bin	0.5	0
statistic BasicTopology.peer[4].bitTorrentApp.swarmManager 	ContentManager_25_percentDownloadMarkTime:histogram
field count 0
field mean 0
field stddev -nan
field sum 0
field sqrsum 0
field min 0
field max 0
attr title  "25% Download Time Ordinate, histogram"
attr unit  s
bin	-INF	0
bin	-0.5	0
bin	-0.46666666666667	0
bin	-0.43333333333333	0
bin	-0.4	0
bin	-0.36666666666667	0
bin	-0.33333333333333	0
bin	-0.3	0
bin	-0.26666666666667	0
bin	-0.23333333333333	0
bin	-0.2	0
bin	-0.16666666666667	0
bin	-0.13333333333333	0
bin	-0.1	0
bin	-0.066666666666667	0
bin	-0.033333333333333	0
bin	0	0
bin	0.033333333333333	0
bin	0.066666666666667	0
bin	0.1	0
bin	0.13333333333333	0
bin	0.16666666666667	0
bin	0.2	0
bin	0.23333333333333	0
bin	0.26666666666667	0
bin	0.3	0
bin	0.33333333333333	0
bin	0.36666666666667	0
bin	0.4	0
bin	0.43333333333333	0
bin	0.46666666666667	0
bin	0.5	0
scalar BasicTopology.peer[4].bitTorrentApp.swarmManager 	SwarmManager_EnteredSwarm:last 	-nan
attr title  "Enter Swarm Instant, last"
scalar BasicTopology.peer[4].bitTorrentApp.bitTorrentClient.contentManager_51 	ContentManager_75_percentDownloadMarkTime:last 	-nan
attr title  "75% Download Time Ordinate, last"
attr unit  s
scalar BasicTopology.peer[4].bitTorrentApp.bitTorrentClient.contentManager_51 	ContentManager_50_percentDownloadMarkTime:last 	-nan
attr title  "50% Download Time Ordinate, last"
attr unit  s
scalar BasicTopology.peer[4].bitTorrentApp.bitTorrentClient.contentManager_51 	ContentManager_25_percentDownloadMarkTime:last 	-nan
attr title  "25% Download Time Ordinate, last"
attr unit  s
statistic BasicTopology.peer[4].bitTorrentApp.bitTorrentClient 	"Piece processing time histogram"
field count 2936
field mean 0.0073639305177112
field stddev 0.0099766190078884
field sum 21.6205
field sqrsum 0.451341
field min 0
field max 0.102482
bin	-INF	0
bin	0	936
bin	0.000909091	352
bin	0.001818182	155
bin	0.002727273	108
bin	0.003636364	126
bin	0.004545455	111
bin	0.005454546	58
bin	0.006363637	55
bin	0.007272728	27
bin	0.008181819	55
bin	0.00909091	55
bin	0.010000001	85
bin	0.010909092	81
bin	0.011818183	66
bin	0.012727274	70
bin	0.013636365	71
bin	0.014545456	54
bin	0.015454547	41
bin	0.016363638	49
bin	0.017272729	44
bin	0.01818182	40
bin	0.019090911	33
bin	0.020000002	31
bin	0.020909093	22
bin	0.021818184	27
bin	0.022727275	16
bin	0.023636366	16
bin	0.024545457	14
bin	0.025454548	15
bin	0.026363639	9
bin	0.02727273	11
bin	0.028181821	11
bin	0.029090912	5
bin	0.030000003	9
bin	0.030909094	9
bin	0.031818185	3
bin	0.032727276	5
bin	0.033636367	4
bin	0.034545458	4
bin	0.035454549	4
bin	0.03636364	1
bin	0.037272731	2
bin	0.038181822	4
bin	0.039090913	3
bin	0.040000004	2
bin	0.040909095	3
bin	0.041818186	3
bin	0.042727277	3
bin	0.043636368	0
bin	0.044545459	0
bin	0.04545455	2
bin	0.046363641	1
bin	0.047272732	0
bin	0.048181823	1
bin	0.049090914	2
bin	0.05	22
scalar BasicTopology.peer[5].networkLayer.arp 	failedResolution:count 	0
attr title  "ARP failed resolutions, count"
scalar BasicTopology.peer[5].networkLayer.arp 	initiatedResolution:count 	8
attr title  "ARP initiated resolutions, count"
scalar BasicTopology.peer[5].networkLayer.arp 	sentReplies:count 	0
attr title  "ARP replies sent, count"
scalar BasicTopology.peer[5].networkLayer.arp 	sentReq:count 	8
attr title  "ARP request sent, count"
scalar BasicTopology.peer[5].wlan[0].mgmt 	dropPkByQueue:count 	1553
attr interpolationmode  none
attr source  dropPkByQueue
attr title  "packets dropped by queue, count"
scalar BasicTopology.peer[5].wlan[0].mgmt 	dropPkByQueue:sum(packetBytes) 	408683
attr interpolationmode  none
attr source  dropPkByQueue
attr title  "packets dropped by queue, sum(packetBytes)"
scalar BasicTopology.peer[5].wlan[0].mgmt 	dataQueueLen:max 	10
attr interpolationmode  sample-hold
attr title  "data queue length, max"
scalar BasicTopology.peer[5].wlan[0].mgmt 	dataQueueLen:timeavg 	0.4066740233247
attr interpolationmode  sample-hold
attr title  "data queue length, timeavg"
scalar BasicTopology.peer[5].wlan[0].mac 	"number of received packets" 	85235
scalar BasicTopology.peer[5].wlan[0].mac 	"number of collisions" 	67011
scalar BasicTopology.peer[5].wlan[0].mac 	"number of internal collisions" 	0
scalar BasicTopology.peer[5].wlan[0].mac 	"number of retry for AC 0" 	62786
scalar BasicTopology.peer[5].wlan[0].mac 	"sent and receive bites" 	231948616
scalar BasicTopology.peer[5].wlan[0].mac 	"sent packet within AC 0" 	84746
scalar BasicTopology.peer[5].wlan[0].mac 	"sent in TXOP " 	0
scalar BasicTopology.peer[5].wlan[0].mac 	"sentWithoutRetry AC 0" 	55772
scalar BasicTopology.peer[5].wlan[0].mac 	"numGivenUp AC 0" 	822
scalar BasicTopology.peer[5].wlan[0].mac 	"numDropped AC 0" 	0
scalar BasicTopology.peer[5].wlan[0].radio 	lossRate:min 	0
attr interpolationmode  backward-sample-hold
attr title  "packet loss rate, min"
scalar BasicTopology.peer[5].wlan[0].radio 	lossRate:max 	0.46
attr interpolationmode  backward-sample-hold
attr title  "packet loss rate, max"
scalar BasicTopology.peer[5].wlan[0].radio 	lossRate:timeavg 	0.061704222168272
attr interpolationmode  backward-sample-hold
attr title  "packet loss rate, timeavg"
scalar BasicTopology.peer[5].wlan[0].radio 	radioState:count 	4069578
attr interpolationmode  sample-hold
attr title  "radio state (enum), count"
statistic BasicTopology.peer[5].wlan[0].radio 	channelNo:histogram
field count 0
field mean 0
field stddev -nan
field sum 0
field sqrsum 0
field min 0
field max 0
attr interpolationmode  sample-hold
attr title  "channel no, histogram"
bin	-INF	0
bin	-0.5	0
bin	-0.46666666666667	0
bin	-0.43333333333333	0
bin	-0.4	0
bin	-0.36666666666667	0
bin	-0.33333333333333	0
bin	-0.3	0
bin	-0.26666666666667	0
bin	-0.23333333333333	0
bin	-0.2	0
bin	-0.16666666666667	0
bin	-0.13333333333333	0
bin	-0.1	0
bin	-0.066666666666667	0
bin	-0.033333333333333	0
bin	0	0
bin	0.033333333333333	0
bin	0.066666666666667	0
bin	0.1	0
bin	0.13333333333333	0
bin	0.16666666666667	0
bin	0.2	0
bin	0.23333333333333	0
bin	0.26666666666667	0
bin	0.3	0
bin	0.33333333333333	0
bin	0.36666666666667	0
bin	0.4	0
bin	0.43333333333333	0
bin	0.46666666666667	0
bin	0.5	0
scalar BasicTopology.peer[5].wlan[0].radio 	bitrate:min 	-nan
attr interpolationmode  sample-hold
attr title  "tx bitrate, min"
attr unit  bps
scalar BasicTopology.peer[5].wlan[0].radio 	bitrate:max 	-nan
attr interpolationmode  sample-hold
attr title  "tx bitrate, max"
attr unit  bps
scalar BasicTopology.peer[5].wlan[0].radio 	bitrate:timeavg 	-nan
attr interpolationmode  sample-hold
attr title  "tx bitrate, timeavg"
attr unit  bps
statistic BasicTopology.peer[5].bitTorrentApp.swarmManager 	ContentManager_PieceDownloadTime:histogram
field count 0
field mean 0
field stddev -nan
field sum 0
field sqrsum 0
field min 0
field max 0
attr title  "Swarm Piece Download Time, histogram"
bin	-INF	0
bin	-0.5	0
bin	-0.46666666666667	0
bin	-0.43333333333333	0
bin	-0.4	0
bin	-0.36666666666667	0
bin	-0.33333333333333	0
bin	-0.3	0
bin	-0.26666666666667	0
bin	-0.23333333333333	0
bin	-0.2	0
bin	-0.16666666666667	0
bin	-0.13333333333333	0
bin	-0.1	0
bin	-0.066666666666667	0
bin	-0.033333333333333	0
bin	0	0
bin	0.033333333333333	0
bin	0.066666666666667	0
bin	0.1	0
bin	0.13333333333333	0
bin	0.16666666666667	0
bin	0.2	0
bin	0.23333333333333	0
bin	0.26666666666667	0
bin	0.3	0
bin	0.33333333333333	0
bin	0.36666666666667	0
bin	0.4	0
bin	0.43333333333333	0
bin	0.46666666666667	0
bin	0.5	0
statistic BasicTopology.peer[5].bitTorrentApp.swarmManager 	ContentManager_100_percentDownloadMarkTime:histogram
field count 0
field mean 0
field stddev -nan
field sum 0
field sqrsum 0
field min 0
field max 0
attr title  "100% Download Time Ordinate, histogram"
attr unit  s
bin	-INF	0
bin	-0.5	0
bin	-0.46666666666667	0
bin	-0.43333333333333	0
bin	-0.4	0
bin	-0.36666666666667	0
bin	-0.33333333333333	0
bin	-0.3	0
bin	-0.26666666666667	0
bin	-0.23333333333333	0
bin	-0.2	0
bin	-0.16666666666667	0
bin	-0.13333333333333	0
bin	-0.1	0
bin	-0.066666666666667	0
bin	-0.033333333333333	0
bin	0	0
bin	0.033333333333333	0
bin	0.066666666666667	0
bin	0.1	0
bin	0.13333333333333	0
bin	0.16666666666667	0
bin	0.2	0
bin	0.23333333333333	0
bin	0.26666666666667	0
bin	0.3	0
bin	0.33333333333333	0
bin	0.36666666666667	0
bin	0.4	0
bin	0.43333333333333	0
bin	0.46666666666667	0
bin	0.5	0
statistic BasicTopology.peer[5].bitTorrentApp.swarmManager 	ContentManager_75_percentDownloadMarkTime:histogram
field count 0
field mean 0
field stddev -nan
field sum 0
field sqrsum 0
field min 0
field max 0
attr title  "75% Download Time Ordinate, histogram"
attr unit  s
bin	-INF	0
bin	-0.5	0
bin	-0.46666666666667	0
bin	-0.43333333333333	0
bin	-0.4	0
bin	-0.36666666666667	0
bin	-0.33333333333333	0
bin	-0.3	0
bin	-0.26666666666667	0
bin	-0.23333333333333	0
bin	-0.2	0
bin	-0.16666666666667	0
bin	-0.13333333333333	0
bin	-0.1	0
bin	-0.066666666666667	0
bin	-0.033333333333333	0
bin	0	0
bin	0.033333333333333	0
bin	0.066666666666667	0
bin	0.1	0
bin	0.13333333333333	0
bin	0.16666666666667	0
bin	0.2	0
bin	0.23333333333333	0
bin	0.26666666666667	0
bin	0.3	0
bin	0.33333333333333	0
bin	0.36666666666667	0
bin	0.4	0
bin	0.43333333333333	0
bin	0.46666666666667	0
bin	0.5	0
statistic BasicTopology.peer[5].bitTorrentApp.swarmManager 	ContentManager_50_percentDownloadMarkTime:histogram
field count 0
field mean 0
field stddev -nan
field sum 0
field sqrsum 0
field min 0
field max 0
attr title  "50% Download Time Ordinate, histogram"
attr unit  s
bin	-INF	0
bin	-0.5	0
bin	-0.46666666666667	0
bin	-0.43333333333333	0
bin	-0.4	0
bin	-0.36666666666667	0
bin	-0.33333333333333	0
bin	-0.3	0
bin	-0.26666666666667	0
bin	-0.23333333333333	0
bin	-0.2	0
bin	-0.16666666666667	0
bin	-0.13333333333333	0
bin	-0.1	0
bin	-0.066666666666667	0
bin	-0.033333333333333	0
bin	0	0
bin	0.033333333333333	0
bin	0.066666666666667	0
bin	0.1	0
bin	0.13333333333333	0
bin	0.16666666666667	0
bin	0.2	0
bin	0.23333333333333	0
bin	0.26666666666667	0
bin	0.3	0
bin	0.33333333333333	0
bin	0.36666666666667	0
bin	0.4	0
bin	0.43333333333333	0
bin	0.46666666666667	0
bin	0.5	0
statistic BasicTopology.peer[5].bitTorrentApp.swarmManager 	ContentManager_25_percentDownloadMarkTime:histogram
field count 0
field mean 0
field stddev -nan
field sum 0
field sqrsum 0
field min 0
field max 0
attr title  "25% Download Time Ordinate, histogram"
attr unit  s
bin	-INF	0
bin	-0.5	0
bin	-0.46666666666667	0
bin	-0.43333333333333	0
bin	-0.4	0
bin	-0.36666666666667	0
bin	-0.33333333333333	0
bin	-0.3	0
bin	-0.26666666666667	0
bin	-0.23333333333333	0
bin	-0.2	0
bin	-0.16666666666667	0
bin	-0.13333333333333	0
bin	-0.1	0
bin	-0.066666666666667	0
bin	-0.033333333333333	0
bin	0	0
bin	0.033333333333333	0
bin	0.066666666666667	0
bin	0.1	0
bin	0.13333333333333	0
bin	0.16666666666667	0
bin	0.2	0
bin	0.23333333333333	0
bin	0.26666666666667	0
bin	0.3	0
bin	0.33333333333333	0
bin	0.36666666666667	0
bin	0.4	0
bin	0.43333333333333	0
bin	0.46666666666667	0
bin	0.5	0
scalar BasicTopology.peer[5].bitTorrentApp.swarmManager 	SwarmManager_EnteredSwarm:last 	-nan
attr title  "Enter Swarm Instant, last"
scalar BasicTopology.peer[5].bitTorrentApp.bitTorrentClient.contentManager_51 	ContentManager_75_percentDownloadMarkTime:last 	-nan
attr title  "75% Download Time Ordinate, last"
attr unit  s
scalar BasicTopology.peer[5].bitTorrentApp.bitTorrentClient.contentManager_51 	ContentManager_50_percentDownloadMarkTime:last 	-nan
attr title  "50% Download Time Ordinate, last"
attr unit  s
scalar BasicTopology.peer[5].bitTorrentApp.bitTorrentClient.contentManager_51 	ContentManager_25_percentDownloadMarkTime:last 	-nan
attr title  "25% Download Time Ordinate, last"
attr unit  s
statistic BasicTopology.peer[5].bitTorrentApp.bitTorrentClient 	"Piece processing time histogram"
field count 2936
field mean 0.0073639305177112
field stddev 0.0099766190078884
field sum 21.6205
field sqrsum 0.451341
field min 0
field max 0.102482
bin	-INF	0
bin	0	936
bin	0.000909091	352
bin	0.001818182	155
bin	0.002727273	108
bin	0.003636364	126
bin	0.004545455	111
bin	0.005454546	58
bin	0.006363637	55
bin	0.007272728	27
bin	0.008181819	55
bin	0.00909091	55
bin	0.010000001	85
bin	0.010909092	81
bin	0.011818183	66
bin	0.012727274	70
bin	0.013636365	71
bin	0.014545456	54
bin	0.015454547	41
bin	0.016363638	49
bin	0.017272729	44
bin	0.01818182	40
bin	0.019090911	33
bin	0.020000002	31
bin	0.020909093	22
bin	0.021818184	27
bin	0.022727275	16
bin	0.023636366	16
bin	0.024545457	14
bin	0.025454548	15
bin	0.026363639	9
bin	0.02727273	11
bin	0.028181821	11
bin	0.029090912	5
bin	0.030000003	9
bin	0.030909094	9
bin	0.031818185	3
bin	0.032727276	5
bin	0.033636367	4
bin	0.034545458	4
bin	0.035454549	4
bin	0.03636364	1
bin	0.037272731	2
bin	0.038181822	4
bin	0.039090913	3
bin	0.040000004	2
bin	0.040909095	3
bin	0.041818186	3
bin	0.042727277	3
bin	0.043636368	0
bin	0.044545459	0
bin	0.04545455	2
bin	0.046363641	1
bin	0.047272732	0
bin	0.048181823	1
bin	0.049090914	2
bin	0.05	22
scalar BasicTopology.peer[6].networkLayer.arp 	failedResolution:count 	0
attr title  "ARP failed resolutions, count"
scalar BasicTopology.peer[6].networkLayer.arp 	initiatedResolution:count 	5
attr title  "ARP initiated resolutions, count"
scalar BasicTopology.peer[6].networkLayer.arp 	sentReplies:count 	0
attr title  "ARP replies sent, count"
scalar BasicTopology.peer[6].networkLayer.arp 	sentReq:count 	5
attr title  "ARP request sent, count"
scalar BasicTopology.peer[6].wlan[0].mgmt 	dropPkByQueue:count 	937
attr interpolationmode  none
attr source  dropPkByQueue
attr title  "packets dropped by queue, count"
scalar BasicTopology.peer[6].wlan[0].mgmt 	dropPkByQueue:sum(packetBytes) 	156381
attr interpolationmode  none
attr source  dropPkByQueue
attr title  "packets dropped by queue, sum(packetBytes)"
scalar BasicTopology.peer[6].wlan[0].mgmt 	dataQueueLen:max 	10
attr interpolationmode  sample-hold
attr title  "data queue length, max"
scalar BasicTopology.peer[6].wlan[0].mgmt 	dataQueueLen:timeavg 	0.178528172147
attr interpolationmode  sample-hold
attr title  "data queue length, timeavg"
scalar BasicTopology.peer[6].wlan[0].mac 	"number of received packets" 	67135
scalar BasicTopology.peer[6].wlan[0].mac 	"number of collisions" 	64561
scalar BasicTopology.peer[6].wlan[0].mac 	"number of internal collisions" 	0
scalar BasicTopology.peer[6].wlan[0].mac 	"number of retry for AC 0" 	37747
scalar BasicTopology.peer[6].wlan[0].mac 	"sent and receive bites" 	172192256
scalar BasicTopology.peer[6].wlan[0].mac 	"sent packet within AC 0" 	66789
scalar BasicTopology.peer[6].wlan[0].mac 	"sent in TXOP " 	0
scalar BasicTopology.peer[6].wlan[0].mac 	"sentWithoutRetry AC 0" 	47891
scalar BasicTopology.peer[6].wlan[0].mac 	"numGivenUp AC 0" 	356
scalar BasicTopology.peer[6].wlan[0].mac 	"numDropped AC 0" 	0
scalar BasicTopology.peer[6].wlan[0].radio 	lossRate:min 	0
attr interpolationmode  backward-sample-hold
attr title  "packet loss rate, min"
scalar BasicTopology.peer[6].wlan[0].radio 	lossRate:max 	0.48
attr interpolationmode  backward-sample-hold
attr title  "packet loss rate, max"
scalar BasicTopology.peer[6].wlan[0].radio 	lossRate:timeavg 	0.055907400161844
attr interpolationmode  backward-sample-hold
attr title  "packet loss rate, timeavg"
scalar BasicTopology.peer[6].wlan[0].radio 	radioState:count 	3446920
attr interpolationmode  sample-hold
attr title  "radio state (enum), count"
statistic BasicTopology.peer[6].wlan[0].radio 	channelNo:histogram
field count 0
field mean 0
field stddev -nan
field sum 0
field sqrsum 0
field min 0
field max 0
attr interpolationmode  sample-hold
attr title  "channel no, histogram"
bin	-INF	0
bin	-0.5	0
bin	-0.46666666666667	0
bin	-0.43333333333333	0
bin	-0.4	0
bin	-0.36666666666667	0
bin	-0.33333333333333	0
bin	-0.3	0
bin	-0.26666666666667	0
bin	-0.23333333333333	0
bin	-0.2	0
bin	-0.16666666666667	0
bin	-0.13333333333333	0
bin	-0.1	0
bin	-0.066666666666667	0
bin	-0.033333333333333	0
bin	0	0
bin	0.033333333333333	0
bin	0.066666666666667	0
bin	0.1	0
bin	0.13333333333333	0
bin	0.16666666666667	0
bin	0.2	0
bin	0.23333333333333	0
bin	0.26666666666667	0
bin	0.3	0
bin	0.33333333333333	0
bin	0.36666666666667	0
bin	0.4	0
bin	0.43333333333333	0
bin	0.46666666666667	0
bin	0.5	0
scalar BasicTopology.peer[6].wlan[0].radio 	bitrate:min 	-nan
attr interpolationmode  sample-hold
attr title  "tx bitrate, min"
attr unit  bps
scalar BasicTopology.peer[6].wlan[0].radio 	bitrate:max 	-nan
attr interpolationmode  sample-hold
attr title  "tx bitrate, max"
attr unit  bps
scalar BasicTopology.peer[6].wlan[0].radio 	bitrate:timeavg 	-nan
attr interpolationmode  sample-hold
attr title  "tx bitrate, timeavg"
attr unit  bps
statistic BasicTopology.peer[6].bitTorrentApp.swarmManager 	ContentManager_PieceDownloadTime:histogram
field count 0
field mean 0
field stddev -nan
field sum 0
field sqrsum 0
field min 0
field max 0
attr title  "Swarm Piece Download Time, histogram"
bin	-INF	0
bin	-0.5	0
bin	-0.46666666666667	0
bin	-0.43333333333333	0
bin	-0.4	0
bin	-0.36666666666667	0
bin	-0.33333333333333	0
bin	-0.3	0
bin	-0.26666666666667	0
bin	-0.23333333333333	0
bin	-0.2	0
bin	-0.16666666666667	0
bin	-0.13333333333333	0
bin	-0.1	0
bin	-0.066666666666667	0
bin	-0.033333333333333	0
bin	0	0
bin	0.033333333333333	0
bin	0.066666666666667	0
bin	0.1	0
bin	0.13333333333333	0
bin	0.16666666666667	0
bin	0.2	0
bin	0.23333333333333	0
bin	0.26666666666667	0
bin	0.3	0
bin	0.33333333333333	0
bin	0.36666666666667	0
bin	0.4	0
bin	0.43333333333333	0
bin	0.46666666666667	0
bin	0.5	0
statistic BasicTopology.peer[6].bitTorrentApp.swarmManager 	ContentManager_100_percentDownloadMarkTime:histogram
field count 0
field mean 0
field stddev -nan
field sum 0
field sqrsum 0
field min 0
field max 0
attr title  "100% Download Time Ordinate, histogram"
attr unit  s
bin	-INF	0
bin	-0.5	0
bin	-0.46666666666667	0
bin	-0.43333333333333	0
bin	-0.4	0
bin	-0.36666666666667	0
bin	-0.33333333333333	0
bin	-0.3	0
bin	-0.26666666666667	0
bin	-0.23333333333333	0
bin	-0.2	0
bin	-0.16666666666667	0
bin	-0.13333333333333	0
bin	-0.1	0
bin	-0.066666666666667	0
bin	-0.033333333333333	0
bin	0	0
bin	0.033333333333333	0
bin	0.066666666666667	0
bin	0.1	0
bin	0.13333333333333	0
bin	0.16666666666667	0
bin	0.2	0
bin	0.23333333333333	0
bin	0.26666666666667	0
bin	0.3	0
bin	0.33333333333333	0
bin	0.36666666666667	0
bin	0.4	0
bin	0.43333333333333	0
bin	0.46666666666667	0
bin	0.5	0
statistic BasicTopology.peer[6].bitTorrentApp.swarmManager 	ContentManager_75_percentDownloadMarkTime:histogram
field count 0
field mean 0
field stddev -nan
field sum 0
field sqrsum 0
field min 0
field max 0
attr title  "75% Download Time Ordinate, histogram"
attr unit  s
bin	-INF	0
bin	-0.5	0
bin	-0.46666666666667	0
bin	-0.43333333333333	0
bin	-0.4	0
bin	-0.36666666666667	0
bin	-0.33333333333333	0
bin	-0.3	0
bin	-0.26666666666667	0
bin	-0.23333333333333	0
bin	-0.2	0
bin	-0.16666666666667	0
bin	-0.13333333333333	0
bin	-0.1	0
bin	-0.066666666666667	0
bin	-0.033333333333333	0
bin	0	0
bin	0.033333333333333	0
bin	0.066666666666667	0
bin	0.1	0
bin	0.13333333333333	0
bin	0.16666666666667	0
bin	0.2	0
bin	0.23333333333333	0
bin	0.26666666666667	0
bin	0.3	0
bin	0.33333333333333	0
bin	0.36666666666667	0
bin	0.4	0
bin	0.43333333333333	0
bin	0.46666666666667	0
bin	0.5	0
statistic BasicTopology.peer[6].bitTorrentApp.swarmManager 	ContentManager_50_percentDownloadMarkTime:histogram
field count 0
field mean 0
field stddev -nan
field sum 0
field sqrsum 0
field min 0
field max 0
attr title  "50% Download Time Ordinate, histogram"
attr unit  s
bin	-INF	0
bin	-0.5	0
bin	-0.46666666666667	0
bin	-0.43333333333333	0
bin	-0.4	0
bin	-0.36666666666667	0
bin	-0.33333333333333	0
bin	-0.3	0
bin	-0.26666666666667	0
bin	-0.23333333333333	0
bin	-0.2	0
bin	-0.16666666666667	0
bin	-0.13333333333333	0
bin	-0.1	0
bin	-0.066666666666667	0
bin	-0.033333333333333	0
bin	0	0
bin	0.033333333333333	0
bin	0.066666666666667	0
bin	0.1	0
bin	0.13333333333333	0
bin	0.16666666666667	0
bin	0.2	0
bin	0.23333333333333	0
bin	0.26666666666667	0
bin	0.3	0
bin	0.33333333333333	0
bin	0.36666666666667	0
bin	0.4	0
bin	0.43333333333333	0
bin	0.46666666666667	0
bin	0.5	0
statistic BasicTopology.peer[6].bitTorrentApp.swarmManager 	ContentManager_25_percentDownloadMarkTime:histogram
field count 0
field mean 0
field stddev -nan
field sum 0
field sqrsum 0
field min 0
field max 0
attr title  "25% Download Time Ordinate, histogram"
attr unit  s
bin	-INF	0
bin	-0.5	0
bin	-0.46666666666667	0
bin	-0.43333333333333	0
bin	-0.4	0
bin	-0.36666666666667	0
bin	-0.33333333333333	0
bin	-0.3	0
bin	-0.26666666666667	0
bin	-0.23333333333333	0
bin	-0.2	0
bin	-0.16666666666667	0
bin	-0.13333333333333	0
bin	-0.1	0
bin	-0.066666666666667	0
bin	-0.033333333333333	0
bin	0	0
bin	0.033333333333333	0
bin	0.066666666666667	0
bin	0.1	0
bin	0.13333333333333	0
bin	0.16666666666667	0
bin	0.2	0
bin	0.23333333333333	0
bin	0.26666666666667	0
bin	0.3	0
bin	0.33333333333333	0
bin	0.36666666666667	0
bin	0.4	0
bin	0.43333333333333	0
bin	0.46666666666667	0
bin	0.5	0
scalar BasicTopology.peer[6].bitTorrentApp.swarmManager 	SwarmManager_EnteredSwarm:last 	-nan
attr title  "Enter Swarm Instant, last"
scalar BasicTopology.peer[6].bitTorrentApp.bitTorrentClient.contentManager_51 	ContentManager_75_percentDownloadMarkTime:last 	-nan
attr title  "75% Download Time Ordinate, last"
attr unit  s
scalar BasicTopology.peer[6].bitTorrentApp.bitTorrentClient.contentManager_51 	ContentManager_50_percentDownloadMarkTime:last 	-nan
attr title  "50% Download Time Ordinate, last"
attr unit  s
scalar BasicTopology.peer[6].bitTorrentApp.bitTorrentClient.contentManager_51 	ContentManager_25_percentDownloadMarkTime:last 	-nan
attr title  "25% Download Time Ordinate, last"
attr unit  s
statistic BasicTopology.peer[6].bitTorrentApp.bitTorrentClient 	"Piece processing time histogram"
field count 2936
field mean 0.0073639305177112
field stddev 0.0099766190078884
field sum 21.6205
field sqrsum 0.451341
field min 0
field max 0.102482
bin	-INF	0
bin	0	936
bin	0.000909091	352
bin	0.001818182	155
bin	0.002727273	108
bin	0.003636364	126
bin	0.004545455	111
bin	0.005454546	58
bin	0.006363637	55
bin	0.007272728	27
bin	0.008181819	55
bin	0.00909091	55
bin	0.010000001	85
bin	0.010909092	81
bin	0.011818183	66
bin	0.012727274	70
bin	0.013636365	71
bin	0.014545456	54
bin	0.015454547	41
bin	0.016363638	49
bin	0.017272729	44
bin	0.01818182	40
bin	0.019090911	33
bin	0.020000002	31
bin	0.020909093	22
bin	0.021818184	27
bin	0.022727275	16
bin	0.023636366	16
bin	0.024545457	14
bin	0.025454548	15
bin	0.026363639	9
bin	0.02727273	11
bin	0.028181821	11
bin	0.029090912	5
bin	0.030000003	9
bin	0.030909094	9
bin	0.031818185	3
bin	0.032727276	5
bin	0.033636367	4
bin	0.034545458	4
bin	0.035454549	4
bin	0.03636364	1
bin	0.037272731	2
bin	0.038181822	4
bin	0.039090913	3
bin	0.040000004	2
bin	0.040909095	3
bin	0.041818186	3
bin	0.042727277	3
bin	0.043636368	0
bin	0.044545459	0
bin	0.04545455	2
bin	0.046363641	1
bin	0.047272732	0
bin	0.048181823	1
bin	0.049090914	2
bin	0.05	22
scalar BasicTopology.peer[7].networkLayer.arp 	failedResolution:count 	0
attr title  "ARP failed resolutions, count"
scalar BasicTopology.peer[7].networkLayer.arp 	initiatedResolution:count 	9
attr title  "ARP initiated resolutions, count"
scalar BasicTopology.peer[7].networkLayer.arp 	sentReplies:count 	0
attr title  "ARP replies sent, count"
scalar BasicTopology.peer[7].networkLayer.arp 	sentReq:count 	9
attr title  "ARP request sent, count"
scalar BasicTopology.peer[7].wlan[0].mgmt 	dropPkByQueue:count 	719
attr interpolationmode  none
attr source  dropPkByQueue
attr title  "packets dropped by queue, count"
scalar BasicTopology.peer[7].wlan[0].mgmt 	dropPkByQueue:sum(packetBytes) 	101911
attr interpolationmode  none
attr source  dropPkByQueue
attr title  "packets dropped by queue, sum(packetBytes)"
scalar BasicTopology.peer[7].wlan[0].mgmt 	dataQueueLen:max 	10
attr interpolationmode  sample-hold
attr title  "data queue length, max"
scalar BasicTopology.peer[7].wlan[0].mgmt 	dataQueueLen:timeavg 	0.10765717368304
attr interpolationmode  sample-hold
attr title  "data queue length, timeavg"
scalar BasicTopology.peer[7].wlan[0].mac 	"number of received packets" 	57054
scalar BasicTopology.peer[7].wlan[0].mac 	"number of collisions" 	41428
scalar BasicTopology.peer[7].wlan[0].mac 	"number of internal collisions" 	0
scalar BasicTopology.peer[7].wlan[0].mac 	"number of retry for AC 0" 	27085
scalar BasicTopology.peer[7].wlan[0].mac 	"sent and receive bites" 	145908552
scalar BasicTopology.peer[7].wlan[0].mac 	"sent packet within AC 0" 	57132
scalar BasicTopology.peer[7].wlan[0].mac 	"sent in TXOP " 	0
scalar BasicTopology.peer[7].wlan[0].mac 	"sentWithoutRetry AC 0" 	42892
scalar BasicTopology.peer[7].wlan[0].mac 	"numGivenUp AC 0" 	218
scalar BasicTopology.peer[7].wlan[0].mac 	"numDropped AC 0" 	0
scalar BasicTopology.peer[7].wlan[0].radio 	lossRate:min 	0
attr interpolationmode  backward-sample-hold
attr title  "packet loss rate, min"
scalar BasicTopology.peer[7].wlan[0].radio 	lossRate:max 	0.66
attr interpolationmode  backward-sample-hold
attr title  "packet loss rate, max"
scalar BasicTopology.peer[7].wlan[0].radio 	lossRate:timeavg 	0.042583112373412
attr interpolationmode  backward-sample-hold
attr title  "packet loss rate, timeavg"
scalar BasicTopology.peer[7].wlan[0].radio 	radioState:count 	2867794
attr interpolationmode  sample-hold
attr title  "radio state (enum), count"
statistic BasicTopology.peer[7].wlan[0].radio 	channelNo:histogram
field count 0
field mean 0
field stddev -nan
field sum 0
field sqrsum 0
field min 0
field max 0
attr interpolationmode  sample-hold
attr title  "channel no, histogram"
bin	-INF	0
bin	-0.5	0
bin	-0.46666666666667	0
bin	-0.43333333333333	0
bin	-0.4	0
bin	-0.36666666666667	0
bin	-0.33333333333333	0
bin	-0.3	0
bin	-0.26666666666667	0
bin	-0.23333333333333	0
bin	-0.2	0
bin	-0.16666666666667	0
bin	-0.13333333333333	0
bin	-0.1	0
bin	-0.066666666666667	0
bin	-0.033333333333333	0
bin	0	0
bin	0.033333333333333	0
bin	0.066666666666667	0
bin	0.1	0
bin	0.13333333333333	0
bin	0.16666666666667	0
bin	0.2	0
bin	0.23333333333333	0
bin	0.26666666666667	0
bin	0.3	0
bin	0.33333333333333	0
bin	0.36666666666667	0
bin	0.4	0
bin	0.43333333333333	0
bin	0.46666666666667	0
bin	0.5	0
scalar BasicTopology.peer[7].wlan[0].radio 	bitrate:min 	-nan
attr interpolationmode  sample-hold
attr title  "tx bitrate, min"
attr unit  bps
scalar BasicTopology.peer[7].wlan[0].radio 	bitrate:max 	-nan
attr interpolationmode  sample-hold
attr title  "tx bitrate, max"
attr unit  bps
scalar BasicTopology.peer[7].wlan[0].radio 	bitrate:timeavg 	-nan
attr interpolationmode  sample-hold
attr title  "tx bitrate, timeavg"
attr unit  bps
statistic BasicTopology.peer[7].bitTorrentApp.swarmManager 	ContentManager_PieceDownloadTime:histogram
field count 0
field mean 0
field stddev -nan
field sum 0
field sqrsum 0
field min 0
field max 0
attr title  "Swarm Piece Download Time, histogram"
bin	-INF	0
bin	-0.5	0
bin	-0.46666666666667	0
bin	-0.43333333333333	0
bin	-0.4	0
bin	-0.36666666666667	0
bin	-0.33333333333333	0
bin	-0.3	0
bin	-0.26666666666667	0
bin	-0.23333333333333	0
bin	-0.2	0
bin	-0.16666666666667	0
bin	-0.13333333333333	0
bin	-0.1	0
bin	-0.066666666666667	0
bin	-0.033333333333333	0
bin	0	0
bin	0.033333333333333	0
bin	0.066666666666667	0
bin	0.1	0
bin	0.13333333333333	0
bin	0.16666666666667	0
bin	0.2	0
bin	0.23333333333333	0
bin	0.26666666666667	0
bin	0.3	0
bin	0.33333333333333	0
bin	0.36666666666667	0
bin	0.4	0
bin	0.43333333333333	0
bin	0.46666666666667	0
bin	0.5	0
statistic BasicTopology.peer[7].bitTorrentApp.swarmManager 	ContentManager_100_percentDownloadMarkTime:histogram
field count 0
field mean 0
field stddev -nan
field sum 0
field sqrsum 0
field min 0
field max 0
attr title  "100% Download Time Ordinate, histogram"
attr unit  s
bin	-INF	0
bin	-0.5	0
bin	-0.46666666666667	0
bin	-0.43333333333333	0
bin	-0.4	0
bin	-0.36666666666667	0
bin	-0.33333333333333	0
bin	-0.3	0
bin	-0.26666666666667	0
bin	-0.23333333333333	0
bin	-0.2	0
bin	-0.16666666666667	0
bin	-0.13333333333333	0
bin	-0.1	0
bin	-0.066666666666667	0
bin	-0.033333333333333	0
bin	0	0
bin	0.033333333333333	0
bin	0.066666666666667	0
bin	0.1	0
bin	0.13333333333333	0
bin	0.16666666666667	0
bin	0.2	0
bin	0.23333333333333	0
bin	0.26666666666667	0
bin	0.3	0
bin	0.33333333333333	0
bin	0.36666666666667	0
bin	0.4	0
bin	0.43333333333333	0
bin	0.46666666666667	0
bin	0.5	0
statistic BasicTopology.peer[7].bitTorrentApp.swarmManager 	ContentManager_75_percentDownloadMarkTime:histogram
field count 0
field mean 0
field stddev -nan
field sum 0
field sqrsum 0
field min 0
field max 0
attr title  "75% Download Time Ordinate, histogram"
attr unit  s
bin	-INF	0
bin	-0.5	0
bin	-0.46666666666667	0
bin	-0.43333333333333	0
bin	-0.4	0
bin	-0.36666666666667	0
bin	-0.33333333333333	0
bin	-0.3	0
bin	-0.26666666666667	0
bin	-0.23333333333333	0
bin	-0.2	0
bin	-0.16666666666667	0
bin	-0.13333333333333	0
bin	-0.1	0
bin	-0.066666666666667	0
bin	-0.033333333333333	0
bin	0	0
bin	0.033333333333333	0
bin	0.066666666666667	0
bin	0.1	0
bin	0.13333333333333	0
bin	0.16666666666667	0
bin	0.2	0
bin	0.23333333333333	0
bin	0.26666666666667	0
bin	0.3	0
bin	0.33333333333333	0
bin	0.36666666666667	0
bin	0.4	0
bin	0.43333333333333	0
bin	0.46666666666667	0
bin	0.5	0
statistic BasicTopology.peer[7].bitTorrentApp.swarmManager 	ContentManager_50_percentDownloadMarkTime:histogram
field count 0
field mean 0
field stddev -nan
field sum 0
field sqrsum 0
field min 0
field max 0
attr title  "50% Download Time Ordinate, histogram"
attr unit  s
bin	-INF	0
bin	-0.5	0
bin	-0.46666666666667	0
bin	-0.43333333333333	0
bin	-0.4	0
bin	-0.36666666666667	0
bin	-0.33333333333333	0
bin	-0.3	0
bin	-0.26666666666667	0
bin	-0.23333333333333	0
bin	-0.2	0
bin	-0.16666666666667	0
bin	-0.13333333333333	0
bin	-0.1	0
bin	-0.066666666666667	0
bin	-0.033333333333333	0
bin	0	0
bin	0.033333333333333	0
bin	0.066666666666667	0
bin	0.1	0
bin	0.13333333333333	0
bin	0.16666666666667	0
bin	0.2	0
bin	0.23333333333333	0
bin	0.26666666666667	0
bin	0.3	0
bin	0.33333333333333	0
bin	0.36666666666667	0
bin	0.4	0
bin	0.43333333333333	0
bin	0.46666666666667	0
bin	0.5	0
statistic BasicTopology.peer[7].bitTorrentApp.swarmManager 	ContentManager_25_percentDownloadMarkTime:histogram
field count 0
field mean 0
field stddev -nan
field sum 0
field sqrsum 0
field min 0
field max 0
attr title  "25% Download Time Ordinate, histogram"
attr unit  s
bin	-INF	0
bin	-0.5	0
bin	-0.46666666666667	0
bin	-0.43333333333333	0
bin	-0.4	0
bin	-0.36666666666667	0
bin	-0.33333333333333	0
bin	-0.3	0
bin	-0.26666666666667	0
bin	-0.23333333333333	0
bin	-0.2	0
bin	-0.16666666666667	0
bin	-0.13333333333333	0
bin	-0.1	0
bin	-0.066666666666667	0
bin	-0.033333333333333	0
bin	0	0
bin	0.033333333333333	0
bin	0.066666666666667	0
bin	0.1	0
bin	0.13333333333333	0
bin	0.16666666666667	0
bin	0.2	0
bin	0.23333333333333	0
bin	0.26666666666667	0
bin	0.3	0
bin	0.33333333333333	0
bin	0.36666666666667	0
bin	0.4	0
bin	0.43333333333333	0
bin	0.46666666666667	0
bin	0.5	0
scalar BasicTopology.peer[7].bitTorrentApp.swarmManager 	SwarmManager_EnteredSwarm:last 	-nan
attr title  "Enter Swarm Instant, last"
scalar BasicTopology.peer[7].bitTorrentApp.bitTorrentClient.contentManager_51 	ContentManager_75_percentDownloadMarkTime:last 	-nan
attr title  "75% Download Time Ordinate, last"
attr unit  s
scalar BasicTopology.peer[7].bitTorrentApp.bitTorrentClient.contentManager_51 	ContentManager_50_percentDownloadMarkTime:last 	-nan
attr title  "50% Download Time Ordinate, last"
attr unit  s
scalar BasicTopology.peer[7].bitTorrentApp.bitTorrentClient.contentManager_51 	ContentManager_25_percentDownloadMarkTime:last 	-nan
attr title  "25% Download Time Ordinate, last"
attr unit  s
statistic BasicTopology.peer[7].bitTorrentApp.bitTorrentClient 	"Piece processing time histogram"
field count 2936
field mean 0.0073639305177112
field stddev 0.0099766190078884
field sum 21.6205
field sqrsum 0.451341
field min 0
field max 0.102482
bin	-INF	0
bin	0	936
bin	0.000909091	352
bin	0.001818182	155
bin	0.002727273	108
bin	0.003636364	126
bin	0.004545455	111
bin	0.005454546	58
bin	0.006363637	55
bin	0.007272728	27
bin	0.008181819	55
bin	0.00909091	55
bin	0.010000001	85
bin	0.010909092	81
bin	0.011818183	66
bin	0.012727274	70
bin	0.013636365	71
bin	0.014545456	54
bin	0.015454547	41
bin	0.016363638	49
bin	0.017272729	44
bin	0.01818182	40
bin	0.019090911	33
bin	0.020000002	31
[...]
field sum 0
field sqrsum 0
field min 0
field max 0
attr title  "Swarm Piece Download Time, histogram"
bin	-INF	0
bin	-0.5	0
bin	-0.46666666666667	0
bin	-0.43333333333333	0
bin	-0.4	0
bin	-0.36666666666667	0
bin	-0.33333333333333	0
bin	-0.3	0
bin	-0.26666666666667	0
bin	-0.23333333333333	0
bin	-0.2	0
bin	-0.16666666666667	0
bin	-0.13333333333333	0
bin	-0.1	0
bin	-0.066666666666667	0
bin	-0.033333333333333	0
bin	0	0
bin	0.033333333333333	0
bin	0.066666666666667	0
bin	0.1	0
bin	0.13333333333333	0
bin	0.16666666666667	0
bin	0.2	0
bin	0.23333333333333	0
bin	0.26666666666667	0
bin	0.3	0
bin	0.33333333333333	0
bin	0.36666666666667	0
bin	0.4	0
bin	0.43333333333333	0
bin	0.46666666666667	0
bin	0.5	0
statistic BasicTopology.peer[48].bitTorrentApp.swarmManager 	ContentManager_100_percentDownloadMarkTime:histogram
field count 0
field mean 0
field stddev -nan
field sum 0
field sqrsum 0
field min 0
field max 0
attr title  "100% Download Time Ordinate, histogram"
attr unit  s
bin	-INF	0
bin	-0.5	0
bin	-0.46666666666667	0
bin	-0.43333333333333	0
bin	-0.4	0
bin	-0.36666666666667	0
bin	-0.33333333333333	0
bin	-0.3	0
bin	-0.26666666666667	0
bin	-0.23333333333333	0
bin	-0.2	0
bin	-0.16666666666667	0
bin	-0.13333333333333	0
bin	-0.1	0
bin	-0.066666666666667	0
bin	-0.033333333333333	0
bin	0	0
bin	0.033333333333333	0
bin	0.066666666666667	0
bin	0.1	0
bin	0.13333333333333	0
bin	0.16666666666667	0
bin	0.2	0
bin	0.23333333333333	0
bin	0.26666666666667	0
bin	0.3	0
bin	0.33333333333333	0
bin	0.36666666666667	0
bin	0.4	0
bin	0.43333333333333	0
bin	0.46666666666667	0
bin	0.5	0
statistic BasicTopology.peer[48].bitTorrentApp.swarmManager 	ContentManager_75_percentDownloadMarkTime:histogram
field count 0
field mean 0
field stddev -nan
field sum 0
field sqrsum 0
field min 0
field max 0
attr title  "75% Download Time Ordinate, histogram"
attr unit  s
bin	-INF	0
bin	-0.5	0
bin	-0.46666666666667	0
bin	-0.43333333333333	0
bin	-0.4	0
bin	-0.36666666666667	0
bin	-0.33333333333333	0
bin	-0.3	0
bin	-0.26666666666667	0
bin	-0.23333333333333	0
bin	-0.2	0
bin	-0.16666666666667	0
bin	-0.13333333333333	0
bin	-0.1	0
bin	-0.066666666666667	0
bin	-0.033333333333333	0
bin	0	0
bin	0.033333333333333	0
bin	0.066666666666667	0
bin	0.1	0
bin	0.13333333333333	0
bin	0.16666666666667	0
bin	0.2	0
bin	0.23333333333333	0
bin	0.26666666666667	0
bin	0.3	0
bin	0.33333333333333	0
bin	0.36666666666667	0
bin	0.4	0
bin	0.43333333333333	0
bin	0.46666666666667	0
bin	0.5	0
statistic BasicTopology.peer[48].bitTorrentApp.swarmManager 	ContentManager_50_percentDownloadMarkTime:histogram
field count 0
field mean 0
field stddev -nan
field sum 0
field sqrsum 0
field min 0
field max 0
attr title  "50% Download Time Ordinate, histogram"
attr unit  s
bin	-INF	0
bin	-0.5	0
bin	-0.46666666666667	0
bin	-0.43333333333333	0
bin	-0.4	0
bin	-0.36666666666667	0
bin	-0.33333333333333	0
bin	-0.3	0
bin	-0.26666666666667	0
bin	-0.23333333333333	0
bin	-0.2	0
bin	-0.16666666666667	0
bin	-0.13333333333333	0
bin	-0.1	0
bin	-0.066666666666667	0
bin	-0.033333333333333	0
bin	0	0
bin	0.033333333333333	0
bin	0.066666666666667	0
bin	0.1	0
bin	0.13333333333333	0
bin	0.16666666666667	0
bin	0.2	0
bin	0.23333333333333	0
bin	0.26666666666667	0
bin	0.3	0
bin	0.33333333333333	0
bin	0.36666666666667	0
bin	0.4	0
bin	0.43333333333333	0
bin	0.46666666666667	0
bin	0.5	0
statistic BasicTopology.peer[48].bitTorrentApp.swarmManager 	ContentManager_25_percentDownloadMarkTime:histogram
field count 0
field mean 0
field stddev -nan
field sum 0
field sqrsum 0
field min 0
field max 0
attr title  "25% Download Time Ordinate, histogram"
attr unit  s
bin	-INF	0
bin	-0.5	0
bin	-0.46666666666667	0
bin	-0.43333333333333	0
bin	-0.4	0
bin	-0.36666666666667	0
bin	-0.33333333333333	0
bin	-0.3	0
bin	-0.26666666666667	0
bin	-0.23333333333333	0
bin	-0.2	0
bin	-0.16666666666667	0
bin	-0.13333333333333	0
bin	-0.1	0
bin	-0.066666666666667	0
bin	-0.033333333333333	0
bin	0	0
bin	0.033333333333333	0
bin	0.066666666666667	0
bin	0.1	0
bin	0.13333333333333	0
bin	0.16666666666667	0
bin	0.2	0
bin	0.23333333333333	0
bin	0.26666666666667	0
bin	0.3	0
bin	0.33333333333333	0
bin	0.36666666666667	0
bin	0.4	0
bin	0.43333333333333	0
bin	0.46666666666667	0
bin	0.5	0
scalar BasicTopology.peer[48].bitTorrentApp.swarmManager 	SwarmManager_EnteredSwarm:last 	-nan
attr title  "Enter Swarm Instant, last"
scalar BasicTopology.peer[48].bitTorrentApp.bitTorrentClient.contentManager_51 	ContentManager_75_percentDownloadMarkTime:last 	-nan
attr title  "75% Download Time Ordinate, last"
attr unit  s
scalar BasicTopology.peer[48].bitTorrentApp.bitTorrentClient.contentManager_51 	ContentManager_50_percentDownloadMarkTime:last 	-nan
attr title  "50% Download Time Ordinate, last"
attr unit  s
scalar BasicTopology.peer[48].bitTorrentApp.bitTorrentClient.contentManager_51 	ContentManager_25_percentDownloadMarkTime:last 	-nan
attr title  "25% Download Time Ordinate, last"
attr unit  s
statistic BasicTopology.peer[48].bitTorrentApp.bitTorrentClient 	"Piece processing time histogram"
field count 2936
field mean 0.0073639305177112
field stddev 0.0099766190078884
field sum 21.6205
field sqrsum 0.451341
field min 0
field max 0.102482
bin	-INF	0
bin	0	936
bin	0.000909091	352
bin	0.001818182	155
bin	0.002727273	108
bin	0.003636364	126
bin	0.004545455	111
bin	0.005454546	58
bin	0.006363637	55
bin	0.007272728	27
bin	0.008181819	55
bin	0.00909091	55
bin	0.010000001	85
bin	0.010909092	81
bin	0.011818183	66
bin	0.012727274	70
bin	0.013636365	71
bin	0.014545456	54
bin	0.015454547	41
bin	0.016363638	49
bin	0.017272729	44
bin	0.01818182	40
bin	0.019090911	33
bin	0.020000002	31
bin	0.020909093	22
bin	0.021818184	27
bin	0.022727275	16
bin	0.023636366	16
bin	0.024545457	14
bin	0.025454548	15
bin	0.026363639	9
bin	0.02727273	11
bin	0.028181821	11
bin	0.029090912	5
bin	0.030000003	9
bin	0.030909094	9
bin	0.031818185	3
bin	0.032727276	5
bin	0.033636367	4
bin	0.034545458	4
bin	0.035454549	4
bin	0.03636364	1
bin	0.037272731	2
bin	0.038181822	4
bin	0.039090913	3
bin	0.040000004	2
bin	0.040909095	3
bin	0.041818186	3
bin	0.042727277	3
bin	0.043636368	0
bin	0.044545459	0
bin	0.04545455	2
bin	0.046363641	1
bin	0.047272732	0
bin	0.048181823	1
bin	0.049090914	2
bin	0.05	22
scalar BasicTopology.peer[49].networkLayer.arp 	failedResolution:count 	0
attr title  "ARP failed resolutions, count"
scalar BasicTopology.peer[49].networkLayer.arp 	initiatedResolution:count 	4
attr title  "ARP initiated resolutions, count"
scalar BasicTopology.peer[49].networkLayer.arp 	sentReplies:count 	0
attr title  "ARP replies sent, count"
scalar BasicTopology.peer[49].networkLayer.arp 	sentReq:count 	5
attr title  "ARP request sent, count"
scalar BasicTopology.peer[49].wlan[0].mgmt 	dropPkByQueue:count 	353
attr interpolationmode  none
attr source  dropPkByQueue
attr title  "packets dropped by queue, count"
scalar BasicTopology.peer[49].wlan[0].mgmt 	dropPkByQueue:sum(packetBytes) 	43132
attr interpolationmode  none
attr source  dropPkByQueue
attr title  "packets dropped by queue, sum(packetBytes)"
scalar BasicTopology.peer[49].wlan[0].mgmt 	dataQueueLen:max 	10
attr interpolationmode  sample-hold
attr title  "data queue length, max"
scalar BasicTopology.peer[49].wlan[0].mgmt 	dataQueueLen:timeavg 	0.036483027211017
attr interpolationmode  sample-hold
attr title  "data queue length, timeavg"
scalar BasicTopology.peer[49].wlan[0].mac 	"number of received packets" 	12276
scalar BasicTopology.peer[49].wlan[0].mac 	"number of collisions" 	1473
scalar BasicTopology.peer[49].wlan[0].mac 	"number of internal collisions" 	0
scalar BasicTopology.peer[49].wlan[0].mac 	"number of retry for AC 0" 	8088
scalar BasicTopology.peer[49].wlan[0].mac 	"sent and receive bites" 	25739376
scalar BasicTopology.peer[49].wlan[0].mac 	"sent packet within AC 0" 	13001
scalar BasicTopology.peer[49].wlan[0].mac 	"sent in TXOP " 	0
scalar BasicTopology.peer[49].wlan[0].mac 	"sentWithoutRetry AC 0" 	9100
scalar BasicTopology.peer[49].wlan[0].mac 	"numGivenUp AC 0" 	59
scalar BasicTopology.peer[49].wlan[0].mac 	"numDropped AC 0" 	0
scalar BasicTopology.peer[49].wlan[0].radio 	lossRate:min 	0
attr interpolationmode  backward-sample-hold
attr title  "packet loss rate, min"
scalar BasicTopology.peer[49].wlan[0].radio 	lossRate:max 	0.12
attr interpolationmode  backward-sample-hold
attr title  "packet loss rate, max"
scalar BasicTopology.peer[49].wlan[0].radio 	lossRate:timeavg 	0.0063532271085027
attr interpolationmode  backward-sample-hold
attr title  "packet loss rate, timeavg"
scalar BasicTopology.peer[49].wlan[0].radio 	radioState:count 	1041710
attr interpolationmode  sample-hold
attr title  "radio state (enum), count"
statistic BasicTopology.peer[49].wlan[0].radio 	channelNo:histogram
field count 0
field mean 0
field stddev -nan
field sum 0
field sqrsum 0
field min 0
field max 0
attr interpolationmode  sample-hold
attr title  "channel no, histogram"
bin	-INF	0
bin	-0.5	0
bin	-0.46666666666667	0
bin	-0.43333333333333	0
bin	-0.4	0
bin	-0.36666666666667	0
bin	-0.33333333333333	0
bin	-0.3	0
bin	-0.26666666666667	0
bin	-0.23333333333333	0
bin	-0.2	0
bin	-0.16666666666667	0
bin	-0.13333333333333	0
bin	-0.1	0
bin	-0.066666666666667	0
bin	-0.033333333333333	0
bin	0	0
bin	0.033333333333333	0
bin	0.066666666666667	0
bin	0.1	0
bin	0.13333333333333	0
bin	0.16666666666667	0
bin	0.2	0
bin	0.23333333333333	0
bin	0.26666666666667	0
bin	0.3	0
bin	0.33333333333333	0
bin	0.36666666666667	0
bin	0.4	0
bin	0.43333333333333	0
bin	0.46666666666667	0
bin	0.5	0
scalar BasicTopology.peer[49].wlan[0].radio 	bitrate:min 	-nan
attr interpolationmode  sample-hold
attr title  "tx bitrate, min"
attr unit  bps
scalar BasicTopology.peer[49].wlan[0].radio 	bitrate:max 	-nan
attr interpolationmode  sample-hold
attr title  "tx bitrate, max"
attr unit  bps
scalar BasicTopology.peer[49].wlan[0].radio 	bitrate:timeavg 	-nan
attr interpolationmode  sample-hold
attr title  "tx bitrate, timeavg"
attr unit  bps
statistic BasicTopology.peer[49].bitTorrentApp.swarmManager 	ContentManager_PieceDownloadTime:histogram
field count 0
field mean 0
field stddev -nan
field sum 0
field sqrsum 0
field min 0
field max 0
attr title  "Swarm Piece Download Time, histogram"
bin	-INF	0
bin	-0.5	0
bin	-0.46666666666667	0
bin	-0.43333333333333	0
bin	-0.4	0
bin	-0.36666666666667	0
bin	-0.33333333333333	0
bin	-0.3	0
bin	-0.26666666666667	0
bin	-0.23333333333333	0
bin	-0.2	0
bin	-0.16666666666667	0
bin	-0.13333333333333	0
bin	-0.1	0
bin	-0.066666666666667	0
bin	-0.033333333333333	0
bin	0	0
bin	0.033333333333333	0
bin	0.066666666666667	0
bin	0.1	0
bin	0.13333333333333	0
bin	0.16666666666667	0
bin	0.2	0
bin	0.23333333333333	0
bin	0.26666666666667	0
bin	0.3	0
bin	0.33333333333333	0
bin	0.36666666666667	0
bin	0.4	0
bin	0.43333333333333	0
bin	0.46666666666667	0
bin	0.5	0
statistic BasicTopology.peer[49].bitTorrentApp.swarmManager 	ContentManager_100_percentDownloadMarkTime:histogram
field count 0
field mean 0
field stddev -nan
field sum 0
field sqrsum 0
field min 0
field max 0
attr title  "100% Download Time Ordinate, histogram"
attr unit  s
bin	-INF	0
bin	-0.5	0
bin	-0.46666666666667	0
bin	-0.43333333333333	0
bin	-0.4	0
bin	-0.36666666666667	0
bin	-0.33333333333333	0
bin	-0.3	0
bin	-0.26666666666667	0
bin	-0.23333333333333	0
bin	-0.2	0
bin	-0.16666666666667	0
bin	-0.13333333333333	0
bin	-0.1	0
bin	-0.066666666666667	0
bin	-0.033333333333333	0
bin	0	0
bin	0.033333333333333	0
bin	0.066666666666667	0
bin	0.1	0
bin	0.13333333333333	0
bin	0.16666666666667	0
bin	0.2	0
bin	0.23333333333333	0
bin	0.26666666666667	0
bin	0.3	0
bin	0.33333333333333	0
bin	0.36666666666667	0
bin	0.4	0
bin	0.43333333333333	0
bin	0.46666666666667	0
bin	0.5	0
statistic BasicTopology.peer[49].bitTorrentApp.swarmManager 	ContentManager_75_percentDownloadMarkTime:histogram
field count 0
field mean 0
field stddev -nan
field sum 0
field sqrsum 0
field min 0
field max 0
attr title  "75% Download Time Ordinate, histogram"
attr unit  s
bin	-INF	0
bin	-0.5	0
bin	-0.46666666666667	0
bin	-0.43333333333333	0
bin	-0.4	0
bin	-0.36666666666667	0
bin	-0.33333333333333	0
bin	-0.3	0
bin	-0.26666666666667	0
bin	-0.23333333333333	0
bin	-0.2	0
bin	-0.16666666666667	0
bin	-0.13333333333333	0
bin	-0.1	0
bin	-0.066666666666667	0
bin	-0.033333333333333	0
bin	0	0
bin	0.033333333333333	0
bin	0.066666666666667	0
bin	0.1	0
bin	0.13333333333333	0
bin	0.16666666666667	0
bin	0.2	0
bin	0.23333333333333	0
bin	0.26666666666667	0
bin	0.3	0
bin	0.33333333333333	0
bin	0.36666666666667	0
bin	0.4	0
bin	0.43333333333333	0
bin	0.46666666666667	0
bin	0.5	0
statistic BasicTopology.peer[49].bitTorrentApp.swarmManager 	ContentManager_50_percentDownloadMarkTime:histogram
field count 0
field mean 0
field stddev -nan
field sum 0
field sqrsum 0
field min 0
field max 0
attr title  "50% Download Time Ordinate, histogram"
attr unit  s
bin	-INF	0
bin	-0.5	0
bin	-0.46666666666667	0
bin	-0.43333333333333	0
bin	-0.4	0
bin	-0.36666666666667	0
bin	-0.33333333333333	0
bin	-0.3	0
bin	-0.26666666666667	0
bin	-0.23333333333333	0
bin	-0.2	0
bin	-0.16666666666667	0
bin	-0.13333333333333	0
bin	-0.1	0
bin	-0.066666666666667	0
bin	-0.033333333333333	0
bin	0	0
bin	0.033333333333333	0
bin	0.066666666666667	0
bin	0.1	0
bin	0.13333333333333	0
bin	0.16666666666667	0
bin	0.2	0
bin	0.23333333333333	0
bin	0.26666666666667	0
bin	0.3	0
bin	0.33333333333333	0
bin	0.36666666666667	0
bin	0.4	0
bin	0.43333333333333	0
bin	0.46666666666667	0
bin	0.5	0
statistic BasicTopology.peer[49].bitTorrentApp.swarmManager 	ContentManager_25_percentDownloadMarkTime:histogram
field count 0
field mean 0
field stddev -nan
field sum 0
field sqrsum 0
field min 0
field max 0
attr title  "25% Download Time Ordinate, histogram"
attr unit  s
bin	-INF	0
bin	-0.5	0
bin	-0.46666666666667	0
bin	-0.43333333333333	0
bin	-0.4	0
bin	-0.36666666666667	0
bin	-0.33333333333333	0
bin	-0.3	0
bin	-0.26666666666667	0
bin	-0.23333333333333	0
bin	-0.2	0
bin	-0.16666666666667	0
bin	-0.13333333333333	0
bin	-0.1	0
bin	-0.066666666666667	0
bin	-0.033333333333333	0
bin	0	0
bin	0.033333333333333	0
bin	0.066666666666667	0
bin	0.1	0
bin	0.13333333333333	0
bin	0.16666666666667	0
bin	0.2	0
bin	0.23333333333333	0
bin	0.26666666666667	0
bin	0.3	0
bin	0.33333333333333	0
bin	0.36666666666667	0
bin	0.4	0
bin	0.43333333333333	0
bin	0.46666666666667	0
bin	0.5	0
scalar BasicTopology.peer[49].bitTorrentApp.swarmManager 	SwarmManager_EnteredSwarm:last 	-nan
attr title  "Enter Swarm Instant, last"
scalar BasicTopology.peer[49].bitTorrentApp.bitTorrentClient.contentManager_51 	ContentManager_75_percentDownloadMarkTime:last 	-nan
attr title  "75% Download Time Ordinate, last"
attr unit  s
scalar BasicTopology.peer[49].bitTorrentApp.bitTorrentClient.contentManager_51 	ContentManager_50_percentDownloadMarkTime:last 	-nan
attr title  "50% Download Time Ordinate, last"
attr unit  s
scalar BasicTopology.peer[49].bitTorrentApp.bitTorrentClient.contentManager_51 	ContentManager_25_percentDownloadMarkTime:last 	-nan
attr title  "25% Download Time Ordinate, last"
attr unit  s
statistic BasicTopology.peer[49].bitTorrentApp.bitTorrentClient 	"Piece processing time histogram"
field count 2936
field mean 0.0073639305177112
field stddev 0.0099766190078884
field sum 21.6205
field sqrsum 0.451341
field min 0
field max 0.102482
bin	-INF	0
bin	0	936
bin	0.000909091	352
bin	0.001818182	155
bin	0.002727273	108
bin	0.003636364	126
bin	0.004545455	111
bin	0.005454546	58
bin	0.006363637	55
bin	0.007272728	27
bin	0.008181819	55
bin	0.00909091	55
bin	0.010000001	85
bin	0.010909092	81
bin	0.011818183	66
bin	0.012727274	70
bin	0.013636365	71
bin	0.014545456	54
bin	0.015454547	41
bin	0.016363638	49
bin	0.017272729	44
bin	0.01818182	40
bin	0.019090911	33
bin	0.020000002	31
bin	0.020909093	22
bin	0.021818184	27
bin	0.022727275	16
bin	0.023636366	16
bin	0.024545457	14
bin	0.025454548	15
bin	0.026363639	9
bin	0.02727273	11
bin	0.028181821	11
bin	0.029090912	5
bin	0.030000003	9
bin	0.030909094	9
bin	0.031818185	3
bin	0.032727276	5
bin	0.033636367	4
bin	0.034545458	4
bin	0.035454549	4
bin	0.03636364	1
bin	0.037272731	2
bin	0.038181822	4
bin	0.039090913	3
bin	0.040000004	2
bin	0.040909095	3
bin	0.041818186	3
bin	0.042727277	3
bin	0.043636368	0
bin	0.044545459	0
bin	0.04545455	2
bin	0.046363641	1
bin	0.047272732	0
bin	0.048181823	1
bin	0.049090914	2
bin	0.05	22
scalar BasicTopology.tracker.networkLayer.arp 	failedResolution:count 	0
attr title  "ARP failed resolutions, count"
scalar BasicTopology.tracker.networkLayer.arp 	initiatedResolution:count 	0
attr title  "ARP initiated resolutions, count"
scalar BasicTopology.tracker.networkLayer.arp 	sentReplies:count 	0
attr title  "ARP replies sent, count"
scalar BasicTopology.tracker.networkLayer.arp 	sentReq:count 	0
attr title  "ARP request sent, count"
scalar BasicTopology.tracker.wlan[0].mgmt 	dropPkByQueue:count 	0
attr interpolationmode  none
attr source  dropPkByQueue
attr title  "packets dropped by queue, count"
scalar BasicTopology.tracker.wlan[0].mgmt 	dropPkByQueue:sum(packetBytes) 	0
attr interpolationmode  none
attr source  dropPkByQueue
attr title  "packets dropped by queue, sum(packetBytes)"
scalar BasicTopology.tracker.wlan[0].mgmt 	dataQueueLen:max 	-nan
attr interpolationmode  sample-hold
attr title  "data queue length, max"
scalar BasicTopology.tracker.wlan[0].mgmt 	dataQueueLen:timeavg 	-nan
attr interpolationmode  sample-hold
attr title  "data queue length, timeavg"
scalar BasicTopology.tracker.wlan[0].mac 	"number of received packets" 	0
scalar BasicTopology.tracker.wlan[0].mac 	"number of collisions" 	0
scalar BasicTopology.tracker.wlan[0].mac 	"number of internal collisions" 	0
scalar BasicTopology.tracker.wlan[0].mac 	"number of retry for AC 0" 	0
scalar BasicTopology.tracker.wlan[0].mac 	"sent and receive bites" 	0
scalar BasicTopology.tracker.wlan[0].mac 	"sent packet within AC 0" 	0
scalar BasicTopology.tracker.wlan[0].mac 	"sent in TXOP " 	0
scalar BasicTopology.tracker.wlan[0].mac 	"sentWithoutRetry AC 0" 	0
scalar BasicTopology.tracker.wlan[0].mac 	"numGivenUp AC 0" 	0
scalar BasicTopology.tracker.wlan[0].mac 	"numDropped AC 0" 	0
scalar BasicTopology.tracker.wlan[0].radio 	lossRate:min 	-nan
attr interpolationmode  backward-sample-hold
attr title  "packet loss rate, min"
scalar BasicTopology.tracker.wlan[0].radio 	lossRate:max 	-nan
attr interpolationmode  backward-sample-hold
attr title  "packet loss rate, max"
scalar BasicTopology.tracker.wlan[0].radio 	lossRate:timeavg 	-nan
attr interpolationmode  backward-sample-hold
attr title  "packet loss rate, timeavg"
scalar BasicTopology.tracker.wlan[0].radio 	radioState:count 	0
attr interpolationmode  sample-hold
attr title  "radio state (enum), count"
statistic BasicTopology.tracker.wlan[0].radio 	channelNo:histogram
field count 0
field mean 0
field stddev -nan
field sum 0
field sqrsum 0
field min 0
field max 0
attr interpolationmode  sample-hold
attr title  "channel no, histogram"
bin	-INF	0
bin	-0.5	0
bin	-0.46666666666667	0
bin	-0.43333333333333	0
bin	-0.4	0
bin	-0.36666666666667	0
bin	-0.33333333333333	0
bin	-0.3	0
bin	-0.26666666666667	0
bin	-0.23333333333333	0
bin	-0.2	0
bin	-0.16666666666667	0
bin	-0.13333333333333	0
bin	-0.1	0
bin	-0.066666666666667	0
bin	-0.033333333333333	0
bin	0	0
bin	0.033333333333333	0
bin	0.066666666666667	0
bin	0.1	0
bin	0.13333333333333	0
bin	0.16666666666667	0
bin	0.2	0
bin	0.23333333333333	0
bin	0.26666666666667	0
bin	0.3	0
bin	0.33333333333333	0
bin	0.36666666666667	0
bin	0.4	0
bin	0.43333333333333	0
bin	0.46666666666667	0
bin	0.5	0
scalar BasicTopology.tracker.wlan[0].radio 	bitrate:min 	-nan
attr interpolationmode  sample-hold
attr title  "tx bitrate, min"
attr unit  bps
scalar BasicTopology.tracker.wlan[0].radio 	bitrate:max 	-nan
attr interpolationmode  sample-hold
attr title  "tx bitrate, max"
attr unit  bps
scalar BasicTopology.tracker.wlan[0].radio 	bitrate:timeavg 	-nan
attr interpolationmode  sample-hold
attr title  "tx bitrate, timeavg"
attr unit  bps
scalar BasicTopology 	PieceSent:count 	5029
attr source  BitTorrentClient_PieceSent
attr title  "Sum of Pieces sent, count"
