version 2
run Test-13-20200424-20:19:13-7786
attr configname Test
attr datetime 20200424-20:19:13
attr experiment "\"Simulation Test\""
attr inifile BasicConfig.ini
attr iterationvars ""
attr iterationvars2 $repetition=13
attr measurement "\"Peers: $peers, Rate: $rate\""
attr network BasicTopology
attr processid 7786
attr repetition 13
attr replication #13
attr resultdir results
attr runnumber 13
attr seedset 13

scalar BasicTopology.peer[0].networkLayer.arp 	failedResolution:count 	0
attr title  "ARP failed resolutions, count"
scalar BasicTopology.peer[0].networkLayer.arp 	initiatedResolution:count 	3
attr title  "ARP initiated resolutions, count"
scalar BasicTopology.peer[0].networkLayer.arp 	sentReplies:count 	0
attr title  "ARP replies sent, count"
scalar BasicTopology.peer[0].networkLayer.arp 	sentReq:count 	3
attr title  "ARP request sent, count"
scalar BasicTopology.peer[0].wlan[0].mgmt 	dropPkByQueue:count 	281
attr interpolationmode  none
attr source  dropPkByQueue
attr title  "packets dropped by queue, count"
scalar BasicTopology.peer[0].wlan[0].mgmt 	dropPkByQueue:sum(packetBytes) 	151543
attr interpolationmode  none
attr source  dropPkByQueue
attr title  "packets dropped by queue, sum(packetBytes)"
scalar BasicTopology.peer[0].wlan[0].mgmt 	dataQueueLen:max 	10
attr interpolationmode  sample-hold
attr title  "data queue length, max"
scalar BasicTopology.peer[0].wlan[0].mgmt 	dataQueueLen:timeavg 	0.25319937121288
attr interpolationmode  sample-hold
attr title  "data queue length, timeavg"
scalar BasicTopology.peer[0].wlan[0].mac 	"number of received packets" 	24630
scalar BasicTopology.peer[0].wlan[0].mac 	"number of collisions" 	4588
scalar BasicTopology.peer[0].wlan[0].mac 	"number of internal collisions" 	0
scalar BasicTopology.peer[0].wlan[0].mac 	"number of retry for AC 0" 	22914
scalar BasicTopology.peer[0].wlan[0].mac 	"sent and receive bites" 	106640552
scalar BasicTopology.peer[0].wlan[0].mac 	"sent packet within AC 0" 	25589
scalar BasicTopology.peer[0].wlan[0].mac 	"sent in TXOP " 	0
scalar BasicTopology.peer[0].wlan[0].mac 	"sentWithoutRetry AC 0" 	16220
scalar BasicTopology.peer[0].wlan[0].mac 	"numGivenUp AC 0" 	515
scalar BasicTopology.peer[0].wlan[0].mac 	"numDropped AC 0" 	0
scalar BasicTopology.peer[0].wlan[0].radio 	lossRate:min 	0
attr interpolationmode  backward-sample-hold
attr title  "packet loss rate, min"
scalar BasicTopology.peer[0].wlan[0].radio 	lossRate:max 	0.12
attr interpolationmode  backward-sample-hold
attr title  "packet loss rate, max"
scalar BasicTopology.peer[0].wlan[0].radio 	lossRate:timeavg 	0.0069838745463518
attr interpolationmode  backward-sample-hold
attr title  "packet loss rate, timeavg"
scalar BasicTopology.peer[0].wlan[0].radio 	radioState:count 	1742828
attr interpolationmode  sample-hold
attr title  "radio state (enum), count"
statistic BasicTopology.peer[0].wlan[0].radio 	channelNo:histogram
field count 0
field mean 0
field stddev -nan
field sum 0
field sqrsum 0
field min 0
field max 0
attr interpolationmode  sample-hold
attr title  "channel no, histogram"
bin	-INF	0
bin	-0.5	0
bin	-0.46666666666667	0
bin	-0.43333333333333	0
bin	-0.4	0
bin	-0.36666666666667	0
bin	-0.33333333333333	0
bin	-0.3	0
bin	-0.26666666666667	0
bin	-0.23333333333333	0
bin	-0.2	0
bin	-0.16666666666667	0
bin	-0.13333333333333	0
bin	-0.1	0
bin	-0.066666666666667	0
bin	-0.033333333333333	0
bin	0	0
bin	0.033333333333333	0
bin	0.066666666666667	0
bin	0.1	0
bin	0.13333333333333	0
bin	0.16666666666667	0
bin	0.2	0
bin	0.23333333333333	0
bin	0.26666666666667	0
bin	0.3	0
bin	0.33333333333333	0
bin	0.36666666666667	0
bin	0.4	0
bin	0.43333333333333	0
bin	0.46666666666667	0
bin	0.5	0
scalar BasicTopology.peer[0].wlan[0].radio 	bitrate:min 	-nan
attr interpolationmode  sample-hold
attr title  "tx bitrate, min"
attr unit  bps
scalar BasicTopology.peer[0].wlan[0].radio 	bitrate:max 	-nan
attr interpolationmode  sample-hold
attr title  "tx bitrate, max"
attr unit  bps
scalar BasicTopology.peer[0].wlan[0].radio 	bitrate:timeavg 	-nan
attr interpolationmode  sample-hold
attr title  "tx bitrate, timeavg"
attr unit  bps
statistic BasicTopology.peer[0].bitTorrentApp.swarmManager 	ContentManager_PieceDownloadTime:histogram
field count 0
field mean 0
field stddev -nan
field sum 0
field sqrsum 0
field min 0
field max 0
attr title  "Swarm Piece Download Time, histogram"
bin	-INF	0
bin	-0.5	0
bin	-0.46666666666667	0
bin	-0.43333333333333	0
bin	-0.4	0
bin	-0.36666666666667	0
bin	-0.33333333333333	0
bin	-0.3	0
bin	-0.26666666666667	0
bin	-0.23333333333333	0
bin	-0.2	0
bin	-0.16666666666667	0
bin	-0.13333333333333	0
bin	-0.1	0
bin	-0.066666666666667	0
bin	-0.033333333333333	0
bin	0	0
bin	0.033333333333333	0
bin	0.066666666666667	0
bin	0.1	0
bin	0.13333333333333	0
bin	0.16666666666667	0
bin	0.2	0
bin	0.23333333333333	0
bin	0.26666666666667	0
bin	0.3	0
bin	0.33333333333333	0
bin	0.36666666666667	0
bin	0.4	0
bin	0.43333333333333	0
bin	0.46666666666667	0
bin	0.5	0
statistic BasicTopology.peer[0].bitTorrentApp.swarmManager 	ContentManager_100_percentDownloadMarkTime:histogram
field count 0
field mean 0
field stddev -nan
field sum 0
field sqrsum 0
field min 0
field max 0
attr title  "100% Download Time Ordinate, histogram"
attr unit  s
bin	-INF	0
bin	-0.5	0
bin	-0.46666666666667	0
bin	-0.43333333333333	0
bin	-0.4	0
bin	-0.36666666666667	0
bin	-0.33333333333333	0
bin	-0.3	0
bin	-0.26666666666667	0
bin	-0.23333333333333	0
bin	-0.2	0
bin	-0.16666666666667	0
bin	-0.13333333333333	0
bin	-0.1	0
bin	-0.066666666666667	0
bin	-0.033333333333333	0
bin	0	0
bin	0.033333333333333	0
bin	0.066666666666667	0
bin	0.1	0
bin	0.13333333333333	0
bin	0.16666666666667	0
bin	0.2	0
bin	0.23333333333333	0
bin	0.26666666666667	0
bin	0.3	0
bin	0.33333333333333	0
bin	0.36666666666667	0
bin	0.4	0
bin	0.43333333333333	0
bin	0.46666666666667	0
bin	0.5	0
statistic BasicTopology.peer[0].bitTorrentApp.swarmManager 	ContentManager_75_percentDownloadMarkTime:histogram
field count 0
field mean 0
field stddev -nan
field sum 0
field sqrsum 0
field min 0
field max 0
attr title  "75% Download Time Ordinate, histogram"
attr unit  s
bin	-INF	0
bin	-0.5	0
bin	-0.46666666666667	0
bin	-0.43333333333333	0
bin	-0.4	0
bin	-0.36666666666667	0
bin	-0.33333333333333	0
bin	-0.3	0
bin	-0.26666666666667	0
bin	-0.23333333333333	0
bin	-0.2	0
bin	-0.16666666666667	0
bin	-0.13333333333333	0
bin	-0.1	0
bin	-0.066666666666667	0
bin	-0.033333333333333	0
bin	0	0
bin	0.033333333333333	0
bin	0.066666666666667	0
bin	0.1	0
bin	0.13333333333333	0
bin	0.16666666666667	0
bin	0.2	0
bin	0.23333333333333	0
bin	0.26666666666667	0
bin	0.3	0
bin	0.33333333333333	0
bin	0.36666666666667	0
bin	0.4	0
bin	0.43333333333333	0
bin	0.46666666666667	0
bin	0.5	0
statistic BasicTopology.peer[0].bitTorrentApp.swarmManager 	ContentManager_50_percentDownloadMarkTime:histogram
field count 0
field mean 0
field stddev -nan
field sum 0
field sqrsum 0
field min 0
field max 0
attr title  "50% Download Time Ordinate, histogram"
attr unit  s
bin	-INF	0
bin	-0.5	0
bin	-0.46666666666667	0
bin	-0.43333333333333	0
bin	-0.4	0
bin	-0.36666666666667	0
bin	-0.33333333333333	0
bin	-0.3	0
bin	-0.26666666666667	0
bin	-0.23333333333333	0
bin	-0.2	0
bin	-0.16666666666667	0
bin	-0.13333333333333	0
bin	-0.1	0
bin	-0.066666666666667	0
bin	-0.033333333333333	0
bin	0	0
bin	0.033333333333333	0
bin	0.066666666666667	0
bin	0.1	0
bin	0.13333333333333	0
bin	0.16666666666667	0
bin	0.2	0
bin	0.23333333333333	0
bin	0.26666666666667	0
bin	0.3	0
bin	0.33333333333333	0
bin	0.36666666666667	0
bin	0.4	0
bin	0.43333333333333	0
bin	0.46666666666667	0
bin	0.5	0
statistic BasicTopology.peer[0].bitTorrentApp.swarmManager 	ContentManager_25_percentDownloadMarkTime:histogram
field count 0
field mean 0
field stddev -nan
field sum 0
field sqrsum 0
field min 0
field max 0
attr title  "25% Download Time Ordinate, histogram"
attr unit  s
bin	-INF	0
bin	-0.5	0
bin	-0.46666666666667	0
bin	-0.43333333333333	0
bin	-0.4	0
bin	-0.36666666666667	0
bin	-0.33333333333333	0
bin	-0.3	0
bin	-0.26666666666667	0
bin	-0.23333333333333	0
bin	-0.2	0
bin	-0.16666666666667	0
bin	-0.13333333333333	0
bin	-0.1	0
bin	-0.066666666666667	0
bin	-0.033333333333333	0
bin	0	0
bin	0.033333333333333	0
bin	0.066666666666667	0
bin	0.1	0
bin	0.13333333333333	0
bin	0.16666666666667	0
bin	0.2	0
bin	0.23333333333333	0
bin	0.26666666666667	0
bin	0.3	0
bin	0.33333333333333	0
bin	0.36666666666667	0
bin	0.4	0
bin	0.43333333333333	0
bin	0.46666666666667	0
bin	0.5	0
scalar BasicTopology.peer[0].bitTorrentApp.swarmManager 	SwarmManager_EnteredSwarm:last 	-nan
attr title  "Enter Swarm Instant, last"
scalar BasicTopology.peer[0].bitTorrentApp.bitTorrentClient.contentManager_26 	ContentManager_75_percentDownloadMarkTime:last 	-nan
attr title  "75% Download Time Ordinate, last"
attr unit  s
scalar BasicTopology.peer[0].bitTorrentApp.bitTorrentClient.contentManager_26 	ContentManager_50_percentDownloadMarkTime:last 	-nan
attr title  "50% Download Time Ordinate, last"
attr unit  s
scalar BasicTopology.peer[0].bitTorrentApp.bitTorrentClient.contentManager_26 	ContentManager_25_percentDownloadMarkTime:last 	-nan
attr title  "25% Download Time Ordinate, last"
attr unit  s
statistic BasicTopology.peer[0].bitTorrentApp.bitTorrentClient 	"Piece processing time histogram"
field count 2936
field mean 0.0073639305177112
field stddev 0.0099766190078884
field sum 21.6205
field sqrsum 0.451341
field min 0
field max 0.102482
bin	-INF	0
bin	0	936
bin	0.000909091	352
bin	0.001818182	155
bin	0.002727273	108
bin	0.003636364	126
bin	0.004545455	111
bin	0.005454546	58
bin	0.006363637	55
bin	0.007272728	27
bin	0.008181819	55
bin	0.00909091	55
bin	0.010000001	85
bin	0.010909092	81
bin	0.011818183	66
bin	0.012727274	70
bin	0.013636365	71
bin	0.014545456	54
bin	0.015454547	41
bin	0.016363638	49
bin	0.017272729	44
bin	0.01818182	40
bin	0.019090911	33
bin	0.020000002	31
bin	0.020909093	22
bin	0.021818184	27
bin	0.022727275	16
bin	0.023636366	16
bin	0.024545457	14
bin	0.025454548	15
bin	0.026363639	9
bin	0.02727273	11
bin	0.028181821	11
bin	0.029090912	5
bin	0.030000003	9
bin	0.030909094	9
bin	0.031818185	3
bin	0.032727276	5
bin	0.033636367	4
bin	0.034545458	4
bin	0.035454549	4
bin	0.03636364	1
bin	0.037272731	2
bin	0.038181822	4
bin	0.039090913	3
bin	0.040000004	2
bin	0.040909095	3
bin	0.041818186	3
bin	0.042727277	3
bin	0.043636368	0
bin	0.044545459	0
bin	0.04545455	2
bin	0.046363641	1
bin	0.047272732	0
bin	0.048181823	1
bin	0.049090914	2
bin	0.05	22
scalar BasicTopology.peer[1].networkLayer.arp 	failedResolution:count 	0
attr title  "ARP failed resolutions, count"
scalar BasicTopology.peer[1].networkLayer.arp 	initiatedResolution:count 	6
attr title  "ARP initiated resolutions, count"
scalar BasicTopology.peer[1].networkLayer.arp 	sentReplies:count 	0
attr title  "ARP replies sent, count"
scalar BasicTopology.peer[1].networkLayer.arp 	sentReq:count 	10
attr title  "ARP request sent, count"
scalar BasicTopology.peer[1].wlan[0].mgmt 	dropPkByQueue:count 	741
attr interpolationmode  none
attr source  dropPkByQueue
attr title  "packets dropped by queue, count"
scalar BasicTopology.peer[1].wlan[0].mgmt 	dropPkByQueue:sum(packetBytes) 	259535
attr interpolationmode  none
attr source  dropPkByQueue
attr title  "packets dropped by queue, sum(packetBytes)"
scalar BasicTopology.peer[1].wlan[0].mgmt 	dataQueueLen:max 	10
attr interpolationmode  sample-hold
attr title  "data queue length, max"
scalar BasicTopology.peer[1].wlan[0].mgmt 	dataQueueLen:timeavg 	0.54526157633446
attr interpolationmode  sample-hold
attr title  "data queue length, timeavg"
scalar BasicTopology.peer[1].wlan[0].mac 	"number of received packets" 	46634
scalar BasicTopology.peer[1].wlan[0].mac 	"number of collisions" 	52211
scalar BasicTopology.peer[1].wlan[0].mac 	"number of internal collisions" 	0
scalar BasicTopology.peer[1].wlan[0].mac 	"number of retry for AC 0" 	36336
scalar BasicTopology.peer[1].wlan[0].mac 	"sent and receive bites" 	155472088
scalar BasicTopology.peer[1].wlan[0].mac 	"sent packet within AC 0" 	47162
scalar BasicTopology.peer[1].wlan[0].mac 	"sent in TXOP " 	0
scalar BasicTopology.peer[1].wlan[0].mac 	"sentWithoutRetry AC 0" 	31736
scalar BasicTopology.peer[1].wlan[0].mac 	"numGivenUp AC 0" 	709
scalar BasicTopology.peer[1].wlan[0].mac 	"numDropped AC 0" 	0
scalar BasicTopology.peer[1].wlan[0].radio 	lossRate:min 	0
attr interpolationmode  backward-sample-hold
attr title  "packet loss rate, min"
scalar BasicTopology.peer[1].wlan[0].radio 	lossRate:max 	0.76
attr interpolationmode  backward-sample-hold
attr title  "packet loss rate, max"
scalar BasicTopology.peer[1].wlan[0].radio 	lossRate:timeavg 	0.059141982519383
attr interpolationmode  backward-sample-hold
attr title  "packet loss rate, timeavg"
scalar BasicTopology.peer[1].wlan[0].radio 	radioState:count 	2978812
attr interpolationmode  sample-hold
attr title  "radio state (enum), count"
statistic BasicTopology.peer[1].wlan[0].radio 	channelNo:histogram
field count 0
field mean 0
field stddev -nan
field sum 0
field sqrsum 0
field min 0
field max 0
attr interpolationmode  sample-hold
attr title  "channel no, histogram"
bin	-INF	0
bin	-0.5	0
bin	-0.46666666666667	0
bin	-0.43333333333333	0
bin	-0.4	0
bin	-0.36666666666667	0
bin	-0.33333333333333	0
bin	-0.3	0
bin	-0.26666666666667	0
bin	-0.23333333333333	0
bin	-0.2	0
bin	-0.16666666666667	0
bin	-0.13333333333333	0
bin	-0.1	0
bin	-0.066666666666667	0
bin	-0.033333333333333	0
bin	0	0
bin	0.033333333333333	0
bin	0.066666666666667	0
bin	0.1	0
bin	0.13333333333333	0
bin	0.16666666666667	0
bin	0.2	0
bin	0.23333333333333	0
bin	0.26666666666667	0
bin	0.3	0
bin	0.33333333333333	0
bin	0.36666666666667	0
bin	0.4	0
bin	0.43333333333333	0
bin	0.46666666666667	0
bin	0.5	0
scalar BasicTopology.peer[1].wlan[0].radio 	bitrate:min 	-nan
attr interpolationmode  sample-hold
attr title  "tx bitrate, min"
attr unit  bps
scalar BasicTopology.peer[1].wlan[0].radio 	bitrate:max 	-nan
attr interpolationmode  sample-hold
attr title  "tx bitrate, max"
attr unit  bps
scalar BasicTopology.peer[1].wlan[0].radio 	bitrate:timeavg 	-nan
attr interpolationmode  sample-hold
attr title  "tx bitrate, timeavg"
attr unit  bps
statistic BasicTopology.peer[1].bitTorrentApp.swarmManager 	ContentManager_PieceDownloadTime:histogram
field count 0
field mean 0
field stddev -nan
field sum 0
field sqrsum 0
field min 0
field max 0
attr title  "Swarm Piece Download Time, histogram"
bin	-INF	0
bin	-0.5	0
bin	-0.46666666666667	0
bin	-0.43333333333333	0
bin	-0.4	0
bin	-0.36666666666667	0
bin	-0.33333333333333	0
bin	-0.3	0
bin	-0.26666666666667	0
bin	-0.23333333333333	0
bin	-0.2	0
bin	-0.16666666666667	0
bin	-0.13333333333333	0
bin	-0.1	0
bin	-0.066666666666667	0
bin	-0.033333333333333	0
bin	0	0
bin	0.033333333333333	0
bin	0.066666666666667	0
bin	0.1	0
bin	0.13333333333333	0
bin	0.16666666666667	0
bin	0.2	0
bin	0.23333333333333	0
bin	0.26666666666667	0
bin	0.3	0
bin	0.33333333333333	0
bin	0.36666666666667	0
bin	0.4	0
bin	0.43333333333333	0
bin	0.46666666666667	0
bin	0.5	0
statistic BasicTopology.peer[1].bitTorrentApp.swarmManager 	ContentManager_100_percentDownloadMarkTime:histogram
field count 0
field mean 0
field stddev -nan
field sum 0
field sqrsum 0
field min 0
field max 0
attr title  "100% Download Time Ordinate, histogram"
attr unit  s
bin	-INF	0
bin	-0.5	0
bin	-0.46666666666667	0
bin	-0.43333333333333	0
bin	-0.4	0
bin	-0.36666666666667	0
bin	-0.33333333333333	0
bin	-0.3	0
bin	-0.26666666666667	0
bin	-0.23333333333333	0
bin	-0.2	0
bin	-0.16666666666667	0
bin	-0.13333333333333	0
bin	-0.1	0
bin	-0.066666666666667	0
bin	-0.033333333333333	0
bin	0	0
bin	0.033333333333333	0
bin	0.066666666666667	0
bin	0.1	0
bin	0.13333333333333	0
bin	0.16666666666667	0
bin	0.2	0
bin	0.23333333333333	0
bin	0.26666666666667	0
bin	0.3	0
bin	0.33333333333333	0
bin	0.36666666666667	0
bin	0.4	0
bin	0.43333333333333	0
bin	0.46666666666667	0
bin	0.5	0
statistic BasicTopology.peer[1].bitTorrentApp.swarmManager 	ContentManager_75_percentDownloadMarkTime:histogram
field count 0
field mean 0
field stddev -nan
field sum 0
field sqrsum 0
field min 0
field max 0
attr title  "75% Download Time Ordinate, histogram"
attr unit  s
bin	-INF	0
bin	-0.5	0
bin	-0.46666666666667	0
bin	-0.43333333333333	0
bin	-0.4	0
bin	-0.36666666666667	0
bin	-0.33333333333333	0
bin	-0.3	0
bin	-0.26666666666667	0
bin	-0.23333333333333	0
bin	-0.2	0
bin	-0.16666666666667	0
bin	-0.13333333333333	0
bin	-0.1	0
bin	-0.066666666666667	0
bin	-0.033333333333333	0
bin	0	0
bin	0.033333333333333	0
bin	0.066666666666667	0
bin	0.1	0
bin	0.13333333333333	0
bin	0.16666666666667	0
bin	0.2	0
bin	0.23333333333333	0
bin	0.26666666666667	0
bin	0.3	0
bin	0.33333333333333	0
bin	0.36666666666667	0
bin	0.4	0
bin	0.43333333333333	0
bin	0.46666666666667	0
bin	0.5	0
statistic BasicTopology.peer[1].bitTorrentApp.swarmManager 	ContentManager_50_percentDownloadMarkTime:histogram
field count 0
field mean 0
field stddev -nan
field sum 0
field sqrsum 0
field min 0
field max 0
attr title  "50% Download Time Ordinate, histogram"
attr unit  s
bin	-INF	0
bin	-0.5	0
bin	-0.46666666666667	0
bin	-0.43333333333333	0
bin	-0.4	0
bin	-0.36666666666667	0
bin	-0.33333333333333	0
bin	-0.3	0
bin	-0.26666666666667	0
bin	-0.23333333333333	0
bin	-0.2	0
bin	-0.16666666666667	0
bin	-0.13333333333333	0
bin	-0.1	0
bin	-0.066666666666667	0
bin	-0.033333333333333	0
bin	0	0
bin	0.033333333333333	0
bin	0.066666666666667	0
bin	0.1	0
bin	0.13333333333333	0
bin	0.16666666666667	0
bin	0.2	0
bin	0.23333333333333	0
bin	0.26666666666667	0
bin	0.3	0
bin	0.33333333333333	0
bin	0.36666666666667	0
bin	0.4	0
bin	0.43333333333333	0
bin	0.46666666666667	0
bin	0.5	0
statistic BasicTopology.peer[1].bitTorrentApp.swarmManager 	ContentManager_25_percentDownloadMarkTime:histogram
field count 0
field mean 0
field stddev -nan
field sum 0
field sqrsum 0
field min 0
field max 0
attr title  "25% Download Time Ordinate, histogram"
attr unit  s
bin	-INF	0
bin	-0.5	0
bin	-0.46666666666667	0
bin	-0.43333333333333	0
bin	-0.4	0
bin	-0.36666666666667	0
bin	-0.33333333333333	0
bin	-0.3	0
bin	-0.26666666666667	0
bin	-0.23333333333333	0
bin	-0.2	0
bin	-0.16666666666667	0
bin	-0.13333333333333	0
bin	-0.1	0
bin	-0.066666666666667	0
bin	-0.033333333333333	0
bin	0	0
bin	0.033333333333333	0
bin	0.066666666666667	0
bin	0.1	0
bin	0.13333333333333	0
bin	0.16666666666667	0
bin	0.2	0
bin	0.23333333333333	0
bin	0.26666666666667	0
bin	0.3	0
bin	0.33333333333333	0
bin	0.36666666666667	0
bin	0.4	0
bin	0.43333333333333	0
bin	0.46666666666667	0
bin	0.5	0
scalar BasicTopology.peer[1].bitTorrentApp.swarmManager 	SwarmManager_EnteredSwarm:last 	-nan
attr title  "Enter Swarm Instant, last"
scalar BasicTopology.peer[1].bitTorrentApp.bitTorrentClient.contentManager_26 	ContentManager_75_percentDownloadMarkTime:last 	-nan
attr title  "75% Download Time Ordinate, last"
attr unit  s
scalar BasicTopology.peer[1].bitTorrentApp.bitTorrentClient.contentManager_26 	ContentManager_50_percentDownloadMarkTime:last 	-nan
attr title  "50% Download Time Ordinate, last"
attr unit  s
scalar BasicTopology.peer[1].bitTorrentApp.bitTorrentClient.contentManager_26 	ContentManager_25_percentDownloadMarkTime:last 	-nan
attr title  "25% Download Time Ordinate, last"
attr unit  s
statistic BasicTopology.peer[1].bitTorrentApp.bitTorrentClient 	"Piece processing time histogram"
field count 2936
field mean 0.0073639305177112
field stddev 0.0099766190078884
field sum 21.6205
field sqrsum 0.451341
field min 0
field max 0.102482
bin	-INF	0
bin	0	936
bin	0.000909091	352
bin	0.001818182	155
bin	0.002727273	108
bin	0.003636364	126
bin	0.004545455	111
bin	0.005454546	58
bin	0.006363637	55
bin	0.007272728	27
bin	0.008181819	55
bin	0.00909091	55
bin	0.010000001	85
bin	0.010909092	81
bin	0.011818183	66
bin	0.012727274	70
bin	0.013636365	71
bin	0.014545456	54
bin	0.015454547	41
bin	0.016363638	49
bin	0.017272729	44
bin	0.01818182	40
bin	0.019090911	33
bin	0.020000002	31
bin	0.020909093	22
bin	0.021818184	27
bin	0.022727275	16
bin	0.023636366	16
bin	0.024545457	14
bin	0.025454548	15
bin	0.026363639	9
bin	0.02727273	11
bin	0.028181821	11
bin	0.029090912	5
bin	0.030000003	9
bin	0.030909094	9
bin	0.031818185	3
bin	0.032727276	5
bin	0.033636367	4
bin	0.034545458	4
bin	0.035454549	4
bin	0.03636364	1
bin	0.037272731	2
bin	0.038181822	4
bin	0.039090913	3
bin	0.040000004	2
bin	0.040909095	3
bin	0.041818186	3
bin	0.042727277	3
bin	0.043636368	0
bin	0.044545459	0
bin	0.04545455	2
bin	0.046363641	1
bin	0.047272732	0
bin	0.048181823	1
bin	0.049090914	2
bin	0.05	22
scalar BasicTopology.peer[2].networkLayer.arp 	failedResolution:count 	0
attr title  "ARP failed resolutions, count"
scalar BasicTopology.peer[2].networkLayer.arp 	initiatedResolution:count 	5
attr title  "ARP initiated resolutions, count"
scalar BasicTopology.peer[2].networkLayer.arp 	sentReplies:count 	0
attr title  "ARP replies sent, count"
scalar BasicTopology.peer[2].networkLayer.arp 	sentReq:count 	5
attr title  "ARP request sent, count"
scalar BasicTopology.peer[2].wlan[0].mgmt 	dropPkByQueue:count 	860
attr interpolationmode  none
attr source  dropPkByQueue
attr title  "packets dropped by queue, count"
scalar BasicTopology.peer[2].wlan[0].mgmt 	dropPkByQueue:sum(packetBytes) 	334424
attr interpolationmode  none
attr source  dropPkByQueue
attr title  "packets dropped by queue, sum(packetBytes)"
scalar BasicTopology.peer[2].wlan[0].mgmt 	dataQueueLen:max 	10
attr interpolationmode  sample-hold
attr title  "data queue length, max"
scalar BasicTopology.peer[2].wlan[0].mgmt 	dataQueueLen:timeavg 	0.61553702322868
attr interpolationmode  sample-hold
attr title  "data queue length, timeavg"
scalar BasicTopology.peer[2].wlan[0].mac 	"number of received packets" 	60549
scalar BasicTopology.peer[2].wlan[0].mac 	"number of collisions" 	69345
scalar BasicTopology.peer[2].wlan[0].mac 	"number of internal collisions" 	0
scalar BasicTopology.peer[2].wlan[0].mac 	"number of retry for AC 0" 	46190
scalar BasicTopology.peer[2].wlan[0].mac 	"sent and receive bites" 	182430832
scalar BasicTopology.peer[2].wlan[0].mac 	"sent packet within AC 0" 	60722
scalar BasicTopology.peer[2].wlan[0].mac 	"sent in TXOP " 	0
scalar BasicTopology.peer[2].wlan[0].mac 	"sentWithoutRetry AC 0" 	39182
scalar BasicTopology.peer[2].wlan[0].mac 	"numGivenUp AC 0" 	723
scalar BasicTopology.peer[2].wlan[0].mac 	"numDropped AC 0" 	0
scalar BasicTopology.peer[2].wlan[0].radio 	lossRate:min 	0
attr interpolationmode  backward-sample-hold
attr title  "packet loss rate, min"
scalar BasicTopology.peer[2].wlan[0].radio 	lossRate:max 	0.6
attr interpolationmode  backward-sample-hold
attr title  "packet loss rate, max"
scalar BasicTopology.peer[2].wlan[0].radio 	lossRate:timeavg 	0.086183993335722
attr interpolationmode  backward-sample-hold
attr title  "packet loss rate, timeavg"
scalar BasicTopology.peer[2].wlan[0].radio 	radioState:count 	3367274
attr interpolationmode  sample-hold
attr title  "radio state (enum), count"
statistic BasicTopology.peer[2].wlan[0].radio 	channelNo:histogram
field count 0
field mean 0
field stddev -nan
field sum 0
field sqrsum 0
field min 0
field max 0
attr interpolationmode  sample-hold
attr title  "channel no, histogram"
bin	-INF	0
bin	-0.5	0
bin	-0.46666666666667	0
bin	-0.43333333333333	0
bin	-0.4	0
bin	-0.36666666666667	0
bin	-0.33333333333333	0
bin	-0.3	0
bin	-0.26666666666667	0
bin	-0.23333333333333	0
bin	-0.2	0
bin	-0.16666666666667	0
bin	-0.13333333333333	0
bin	-0.1	0
bin	-0.066666666666667	0
bin	-0.033333333333333	0
bin	0	0
bin	0.033333333333333	0
bin	0.066666666666667	0
bin	0.1	0
bin	0.13333333333333	0
bin	0.16666666666667	0
bin	0.2	0
bin	0.23333333333333	0
bin	0.26666666666667	0
bin	0.3	0
bin	0.33333333333333	0
bin	0.36666666666667	0
bin	0.4	0
bin	0.43333333333333	0
bin	0.46666666666667	0
bin	0.5	0
scalar BasicTopology.peer[2].wlan[0].radio 	bitrate:min 	-nan
attr interpolationmode  sample-hold
attr title  "tx bitrate, min"
attr unit  bps
scalar BasicTopology.peer[2].wlan[0].radio 	bitrate:max 	-nan
attr interpolationmode  sample-hold
attr title  "tx bitrate, max"
attr unit  bps
scalar BasicTopology.peer[2].wlan[0].radio 	bitrate:timeavg 	-nan
attr interpolationmode  sample-hold
attr title  "tx bitrate, timeavg"
attr unit  bps
statistic BasicTopology.peer[2].bitTorrentApp.swarmManager 	ContentManager_PieceDownloadTime:histogram
field count 0
field mean 0
field stddev -nan
field sum 0
field sqrsum 0
field min 0
field max 0
attr title  "Swarm Piece Download Time, histogram"
bin	-INF	0
bin	-0.5	0
bin	-0.46666666666667	0
bin	-0.43333333333333	0
bin	-0.4	0
bin	-0.36666666666667	0
bin	-0.33333333333333	0
bin	-0.3	0
bin	-0.26666666666667	0
bin	-0.23333333333333	0
bin	-0.2	0
bin	-0.16666666666667	0
bin	-0.13333333333333	0
bin	-0.1	0
bin	-0.066666666666667	0
bin	-0.033333333333333	0
bin	0	0
bin	0.033333333333333	0
bin	0.066666666666667	0
bin	0.1	0
bin	0.13333333333333	0
bin	0.16666666666667	0
bin	0.2	0
bin	0.23333333333333	0
bin	0.26666666666667	0
bin	0.3	0
bin	0.33333333333333	0
bin	0.36666666666667	0
bin	0.4	0
bin	0.43333333333333	0
bin	0.46666666666667	0
bin	0.5	0
statistic BasicTopology.peer[2].bitTorrentApp.swarmManager 	ContentManager_100_percentDownloadMarkTime:histogram
field count 0
field mean 0
field stddev -nan
field sum 0
field sqrsum 0
field min 0
field max 0
attr title  "100% Download Time Ordinate, histogram"
attr unit  s
bin	-INF	0
bin	-0.5	0
bin	-0.46666666666667	0
bin	-0.43333333333333	0
bin	-0.4	0
bin	-0.36666666666667	0
bin	-0.33333333333333	0
bin	-0.3	0
bin	-0.26666666666667	0
bin	-0.23333333333333	0
bin	-0.2	0
bin	-0.16666666666667	0
bin	-0.13333333333333	0
bin	-0.1	0
bin	-0.066666666666667	0
bin	-0.033333333333333	0
bin	0	0
bin	0.033333333333333	0
bin	0.066666666666667	0
bin	0.1	0
bin	0.13333333333333	0
bin	0.16666666666667	0
bin	0.2	0
bin	0.23333333333333	0
bin	0.26666666666667	0
bin	0.3	0
bin	0.33333333333333	0
bin	0.36666666666667	0
bin	0.4	0
bin	0.43333333333333	0
bin	0.46666666666667	0
bin	0.5	0
statistic BasicTopology.peer[2].bitTorrentApp.swarmManager 	ContentManager_75_percentDownloadMarkTime:histogram
field count 0
field mean 0
field stddev -nan
field sum 0
field sqrsum 0
field min 0
field max 0
attr title  "75% Download Time Ordinate, histogram"
attr unit  s
bin	-INF	0
bin	-0.5	0
bin	-0.46666666666667	0
bin	-0.43333333333333	0
bin	-0.4	0
bin	-0.36666666666667	0
bin	-0.33333333333333	0
bin	-0.3	0
bin	-0.26666666666667	0
bin	-0.23333333333333	0
bin	-0.2	0
bin	-0.16666666666667	0
bin	-0.13333333333333	0
bin	-0.1	0
bin	-0.066666666666667	0
bin	-0.033333333333333	0
bin	0	0
bin	0.033333333333333	0
bin	0.066666666666667	0
bin	0.1	0
bin	0.13333333333333	0
bin	0.16666666666667	0
bin	0.2	0
bin	0.23333333333333	0
bin	0.26666666666667	0
bin	0.3	0
bin	0.33333333333333	0
bin	0.36666666666667	0
bin	0.4	0
bin	0.43333333333333	0
bin	0.46666666666667	0
bin	0.5	0
statistic BasicTopology.peer[2].bitTorrentApp.swarmManager 	ContentManager_50_percentDownloadMarkTime:histogram
field count 0
field mean 0
field stddev -nan
field sum 0
field sqrsum 0
field min 0
field max 0
attr title  "50% Download Time Ordinate, histogram"
attr unit  s
bin	-INF	0
bin	-0.5	0
bin	-0.46666666666667	0
bin	-0.43333333333333	0
bin	-0.4	0
bin	-0.36666666666667	0
bin	-0.33333333333333	0
bin	-0.3	0
bin	-0.26666666666667	0
bin	-0.23333333333333	0
bin	-0.2	0
bin	-0.16666666666667	0
bin	-0.13333333333333	0
bin	-0.1	0
bin	-0.066666666666667	0
bin	-0.033333333333333	0
bin	0	0
bin	0.033333333333333	0
bin	0.066666666666667	0
bin	0.1	0
bin	0.13333333333333	0
bin	0.16666666666667	0
bin	0.2	0
bin	0.23333333333333	0
bin	0.26666666666667	0
bin	0.3	0
bin	0.33333333333333	0
bin	0.36666666666667	0
bin	0.4	0
bin	0.43333333333333	0
bin	0.46666666666667	0
bin	0.5	0
statistic BasicTopology.peer[2].bitTorrentApp.swarmManager 	ContentManager_25_percentDownloadMarkTime:histogram
field count 0
field mean 0
field stddev -nan
field sum 0
field sqrsum 0
field min 0
field max 0
attr title  "25% Download Time Ordinate, histogram"
attr unit  s
bin	-INF	0
bin	-0.5	0
bin	-0.46666666666667	0
bin	-0.43333333333333	0
bin	-0.4	0
bin	-0.36666666666667	0
bin	-0.33333333333333	0
bin	-0.3	0
bin	-0.26666666666667	0
bin	-0.23333333333333	0
bin	-0.2	0
bin	-0.16666666666667	0
bin	-0.13333333333333	0
bin	-0.1	0
bin	-0.066666666666667	0
bin	-0.033333333333333	0
bin	0	0
bin	0.033333333333333	0
bin	0.066666666666667	0
bin	0.1	0
bin	0.13333333333333	0
bin	0.16666666666667	0
bin	0.2	0
bin	0.23333333333333	0
bin	0.26666666666667	0
bin	0.3	0
bin	0.33333333333333	0
bin	0.36666666666667	0
bin	0.4	0
bin	0.43333333333333	0
bin	0.46666666666667	0
bin	0.5	0
scalar BasicTopology.peer[2].bitTorrentApp.swarmManager 	SwarmManager_EnteredSwarm:last 	-nan
attr title  "Enter Swarm Instant, last"
scalar BasicTopology.peer[2].bitTorrentApp.bitTorrentClient.contentManager_26 	ContentManager_75_percentDownloadMarkTime:last 	-nan
attr title  "75% Download Time Ordinate, last"
attr unit  s
scalar BasicTopology.peer[2].bitTorrentApp.bitTorrentClient.contentManager_26 	ContentManager_50_percentDownloadMarkTime:last 	-nan
attr title  "50% Download Time Ordinate, last"
attr unit  s
scalar BasicTopology.peer[2].bitTorrentApp.bitTorrentClient.contentManager_26 	ContentManager_25_percentDownloadMarkTime:last 	-nan
attr title  "25% Download Time Ordinate, last"
attr unit  s
statistic BasicTopology.peer[2].bitTorrentApp.bitTorrentClient 	"Piece processing time histogram"
field count 2936
field mean 0.0073639305177112
field stddev 0.0099766190078884
field sum 21.6205
field sqrsum 0.451341
field min 0
field max 0.102482
bin	-INF	0
bin	0	936
bin	0.000909091	352
bin	0.001818182	155
bin	0.002727273	108
bin	0.003636364	126
bin	0.004545455	111
bin	0.005454546	58
bin	0.006363637	55
bin	0.007272728	27
bin	0.008181819	55
bin	0.00909091	55
bin	0.010000001	85
bin	0.010909092	81
bin	0.011818183	66
bin	0.012727274	70
bin	0.013636365	71
bin	0.014545456	54
bin	0.015454547	41
bin	0.016363638	49
bin	0.017272729	44
bin	0.01818182	40
bin	0.019090911	33
bin	0.020000002	31
bin	0.020909093	22
bin	0.021818184	27
bin	0.022727275	16
bin	0.023636366	16
bin	0.024545457	14
bin	0.025454548	15
bin	0.026363639	9
bin	0.02727273	11
bin	0.028181821	11
bin	0.029090912	5
bin	0.030000003	9
bin	0.030909094	9
bin	0.031818185	3
bin	0.032727276	5
bin	0.033636367	4
bin	0.034545458	4
bin	0.035454549	4
bin	0.03636364	1
bin	0.037272731	2
bin	0.038181822	4
bin	0.039090913	3
bin	0.040000004	2
bin	0.040909095	3
bin	0.041818186	3
bin	0.042727277	3
bin	0.043636368	0
bin	0.044545459	0
bin	0.04545455	2
bin	0.046363641	1
bin	0.047272732	0
bin	0.048181823	1
bin	0.049090914	2
bin	0.05	22
scalar BasicTopology.peer[3].networkLayer.arp 	failedResolution:count 	0
attr title  "ARP failed resolutions, count"
scalar BasicTopology.peer[3].networkLayer.arp 	initiatedResolution:count 	7
attr title  "ARP initiated resolutions, count"
scalar BasicTopology.peer[3].networkLayer.arp 	sentReplies:count 	0
attr title  "ARP replies sent, count"
scalar BasicTopology.peer[3].networkLayer.arp 	sentReq:count 	7
attr title  "ARP request sent, count"
scalar BasicTopology.peer[3].wlan[0].mgmt 	dropPkByQueue:count 	747
attr interpolationmode  none
attr source  dropPkByQueue
attr title  "packets dropped by queue, count"
scalar BasicTopology.peer[3].wlan[0].mgmt 	dropPkByQueue:sum(packetBytes) 	188502
attr interpolationmode  none
attr source  dropPkByQueue
attr title  "packets dropped by queue, sum(packetBytes)"
scalar BasicTopology.peer[3].wlan[0].mgmt 	dataQueueLen:max 	10
attr interpolationmode  sample-hold
attr title  "data queue length, max"
scalar BasicTopology.peer[3].wlan[0].mgmt 	dataQueueLen:timeavg 	0.58812548746977
attr interpolationmode  sample-hold
attr title  "data queue length, timeavg"
scalar BasicTopology.peer[3].wlan[0].mac 	"number of received packets" 	66927
scalar BasicTopology.peer[3].wlan[0].mac 	"number of collisions" 	102954
scalar BasicTopology.peer[3].wlan[0].mac 	"number of internal collisions" 	0
scalar BasicTopology.peer[3].wlan[0].mac 	"number of retry for AC 0" 	49540
scalar BasicTopology.peer[3].wlan[0].mac 	"sent and receive bites" 	173387584
scalar BasicTopology.peer[3].wlan[0].mac 	"sent packet within AC 0" 	65382
scalar BasicTopology.peer[3].wlan[0].mac 	"sent in TXOP " 	0
scalar BasicTopology.peer[3].wlan[0].mac 	"sentWithoutRetry AC 0" 	43013
scalar BasicTopology.peer[3].wlan[0].mac 	"numGivenUp AC 0" 	878
scalar BasicTopology.peer[3].wlan[0].mac 	"numDropped AC 0" 	0
scalar BasicTopology.peer[3].wlan[0].radio 	lossRate:min 	0
attr interpolationmode  backward-sample-hold
attr title  "packet loss rate, min"
scalar BasicTopology.peer[3].wlan[0].radio 	lossRate:max 	0.76
attr interpolationmode  backward-sample-hold
attr title  "packet loss rate, max"
scalar BasicTopology.peer[3].wlan[0].radio 	lossRate:timeavg 	0.11628438412862
attr interpolationmode  backward-sample-hold
attr title  "packet loss rate, timeavg"
scalar BasicTopology.peer[3].wlan[0].radio 	radioState:count 	3626036
attr interpolationmode  sample-hold
attr title  "radio state (enum), count"
statistic BasicTopology.peer[3].wlan[0].radio 	channelNo:histogram
field count 0
field mean 0
field stddev -nan
field sum 0
field sqrsum 0
field min 0
field max 0
attr interpolationmode  sample-hold
attr title  "channel no, histogram"
bin	-INF	0
bin	-0.5	0
bin	-0.46666666666667	0
bin	-0.43333333333333	0
bin	-0.4	0
bin	-0.36666666666667	0
bin	-0.33333333333333	0
bin	-0.3	0
bin	-0.26666666666667	0
bin	-0.23333333333333	0
bin	-0.2	0
bin	-0.16666666666667	0
bin	-0.13333333333333	0
bin	-0.1	0
bin	-0.066666666666667	0
bin	-0.033333333333333	0
bin	0	0
bin	0.033333333333333	0
bin	0.066666666666667	0
bin	0.1	0
bin	0.13333333333333	0
bin	0.16666666666667	0
bin	0.2	0
bin	0.23333333333333	0
bin	0.26666666666667	0
bin	0.3	0
bin	0.33333333333333	0
bin	0.36666666666667	0
bin	0.4	0
bin	0.43333333333333	0
bin	0.46666666666667	0
bin	0.5	0
scalar BasicTopology.peer[3].wlan[0].radio 	bitrate:min 	-nan
attr interpolationmode  sample-hold
attr title  "tx bitrate, min"
attr unit  bps
scalar BasicTopology.peer[3].wlan[0].radio 	bitrate:max 	-nan
attr interpolationmode  sample-hold
attr title  "tx bitrate, max"
attr unit  bps
scalar BasicTopology.peer[3].wlan[0].radio 	bitrate:timeavg 	-nan
attr interpolationmode  sample-hold
attr title  "tx bitrate, timeavg"
attr unit  bps
statistic BasicTopology.peer[3].bitTorrentApp.swarmManager 	ContentManager_PieceDownloadTime:histogram
field count 0
field mean 0
field stddev -nan
field sum 0
field sqrsum 0
field min 0
field max 0
attr title  "Swarm Piece Download Time, histogram"
bin	-INF	0
bin	-0.5	0
bin	-0.46666666666667	0
bin	-0.43333333333333	0
bin	-0.4	0
bin	-0.36666666666667	0
bin	-0.33333333333333	0
bin	-0.3	0
bin	-0.26666666666667	0
bin	-0.23333333333333	0
bin	-0.2	0
bin	-0.16666666666667	0
bin	-0.13333333333333	0
bin	-0.1	0
bin	-0.066666666666667	0
bin	-0.033333333333333	0
bin	0	0
bin	0.033333333333333	0
bin	0.066666666666667	0
bin	0.1	0
bin	0.13333333333333	0
bin	0.16666666666667	0
bin	0.2	0
bin	0.23333333333333	0
bin	0.26666666666667	0
bin	0.3	0
bin	0.33333333333333	0
bin	0.36666666666667	0
bin	0.4	0
bin	0.43333333333333	0
bin	0.46666666666667	0
bin	0.5	0
statistic BasicTopology.peer[3].bitTorrentApp.swarmManager 	ContentManager_100_percentDownloadMarkTime:histogram
field count 0
field mean 0
field stddev -nan
field sum 0
field sqrsum 0
field min 0
field max 0
attr title  "100% Download Time Ordinate, histogram"
attr unit  s
bin	-INF	0
bin	-0.5	0
bin	-0.46666666666667	0
bin	-0.43333333333333	0
bin	-0.4	0
bin	-0.36666666666667	0
bin	-0.33333333333333	0
bin	-0.3	0
bin	-0.26666666666667	0
bin	-0.23333333333333	0
bin	-0.2	0
bin	-0.16666666666667	0
bin	-0.13333333333333	0
bin	-0.1	0
bin	-0.066666666666667	0
bin	-0.033333333333333	0
bin	0	0
bin	0.033333333333333	0
bin	0.066666666666667	0
bin	0.1	0
bin	0.13333333333333	0
bin	0.16666666666667	0
bin	0.2	0
bin	0.23333333333333	0
bin	0.26666666666667	0
bin	0.3	0
bin	0.33333333333333	0
bin	0.36666666666667	0
bin	0.4	0
bin	0.43333333333333	0
bin	0.46666666666667	0
bin	0.5	0
statistic BasicTopology.peer[3].bitTorrentApp.swarmManager 	ContentManager_75_percentDownloadMarkTime:histogram
field count 0
field mean 0
field stddev -nan
field sum 0
field sqrsum 0
field min 0
field max 0
attr title  "75% Download Time Ordinate, histogram"
attr unit  s
bin	-INF	0
bin	-0.5	0
bin	-0.46666666666667	0
bin	-0.43333333333333	0
bin	-0.4	0
bin	-0.36666666666667	0
bin	-0.33333333333333	0
bin	-0.3	0
bin	-0.26666666666667	0
bin	-0.23333333333333	0
bin	-0.2	0
bin	-0.16666666666667	0
bin	-0.13333333333333	0
bin	-0.1	0
bin	-0.066666666666667	0
bin	-0.033333333333333	0
bin	0	0
bin	0.033333333333333	0
bin	0.066666666666667	0
bin	0.1	0
bin	0.13333333333333	0
bin	0.16666666666667	0
bin	0.2	0
bin	0.23333333333333	0
bin	0.26666666666667	0
bin	0.3	0
bin	0.33333333333333	0
bin	0.36666666666667	0
bin	0.4	0
bin	0.43333333333333	0
bin	0.46666666666667	0
bin	0.5	0
statistic BasicTopology.peer[3].bitTorrentApp.swarmManager 	ContentManager_50_percentDownloadMarkTime:histogram
field count 0
field mean 0
field stddev -nan
field sum 0
field sqrsum 0
field min 0
field max 0
attr title  "50% Download Time Ordinate, histogram"
attr unit  s
bin	-INF	0
bin	-0.5	0
bin	-0.46666666666667	0
bin	-0.43333333333333	0
bin	-0.4	0
bin	-0.36666666666667	0
bin	-0.33333333333333	0
bin	-0.3	0
bin	-0.26666666666667	0
bin	-0.23333333333333	0
bin	-0.2	0
bin	-0.16666666666667	0
bin	-0.13333333333333	0
bin	-0.1	0
bin	-0.066666666666667	0
bin	-0.033333333333333	0
bin	0	0
bin	0.033333333333333	0
bin	0.066666666666667	0
bin	0.1	0
bin	0.13333333333333	0
bin	0.16666666666667	0
bin	0.2	0
bin	0.23333333333333	0
bin	0.26666666666667	0
bin	0.3	0
bin	0.33333333333333	0
bin	0.36666666666667	0
bin	0.4	0
bin	0.43333333333333	0
bin	0.46666666666667	0
bin	0.5	0
statistic BasicTopology.peer[3].bitTorrentApp.swarmManager 	ContentManager_25_percentDownloadMarkTime:histogram
field count 0
field mean 0
field stddev -nan
field sum 0
field sqrsum 0
field min 0
field max 0
attr title  "25% Download Time Ordinate, histogram"
attr unit  s
bin	-INF	0
bin	-0.5	0
bin	-0.46666666666667	0
bin	-0.43333333333333	0
bin	-0.4	0
bin	-0.36666666666667	0
bin	-0.33333333333333	0
bin	-0.3	0
bin	-0.26666666666667	0
bin	-0.23333333333333	0
bin	-0.2	0
bin	-0.16666666666667	0
bin	-0.13333333333333	0
bin	-0.1	0
bin	-0.066666666666667	0
bin	-0.033333333333333	0
bin	0	0
bin	0.033333333333333	0
bin	0.066666666666667	0
bin	0.1	0
bin	0.13333333333333	0
bin	0.16666666666667	0
bin	0.2	0
bin	0.23333333333333	0
bin	0.26666666666667	0
bin	0.3	0
bin	0.33333333333333	0
bin	0.36666666666667	0
bin	0.4	0
bin	0.43333333333333	0
bin	0.46666666666667	0
bin	0.5	0
scalar BasicTopology.peer[3].bitTorrentApp.swarmManager 	SwarmManager_EnteredSwarm:last 	-nan
attr title  "Enter Swarm Instant, last"
scalar BasicTopology.peer[3].bitTorrentApp.bitTorrentClient.contentManager_26 	ContentManager_75_percentDownloadMarkTime:last 	-nan
attr title  "75% Download Time Ordinate, last"
attr unit  s
scalar BasicTopology.peer[3].bitTorrentApp.bitTorrentClient.contentManager_26 	ContentManager_50_percentDownloadMarkTime:last 	-nan
attr title  "50% Download Time Ordinate, last"
attr unit  s
scalar BasicTopology.peer[3].bitTorrentApp.bitTorrentClient.contentManager_26 	ContentManager_25_percentDownloadMarkTime:last 	-nan
attr title  "25% Download Time Ordinate, last"
attr unit  s
statistic BasicTopology.peer[3].bitTorrentApp.bitTorrentClient 	"Piece processing time histogram"
field count 2936
field mean 0.0073639305177112
field stddev 0.0099766190078884
field sum 21.6205
field sqrsum 0.451341
field min 0
field max 0.102482
bin	-INF	0
bin	0	936
bin	0.000909091	352
bin	0.001818182	155
bin	0.002727273	108
bin	0.003636364	126
bin	0.004545455	111
bin	0.005454546	58
bin	0.006363637	55
bin	0.007272728	27
bin	0.008181819	55
bin	0.00909091	55
bin	0.010000001	85
bin	0.010909092	81
bin	0.011818183	66
bin	0.012727274	70
bin	0.013636365	71
bin	0.014545456	54
bin	0.015454547	41
bin	0.016363638	49
bin	0.017272729	44
bin	0.01818182	40
bin	0.019090911	33
bin	0.020000002	31
bin	0.020909093	22
bin	0.021818184	27
bin	0.022727275	16
bin	0.023636366	16
bin	0.024545457	14
bin	0.025454548	15
bin	0.026363639	9
bin	0.02727273	11
bin	0.028181821	11
bin	0.029090912	5
bin	0.030000003	9
bin	0.030909094	9
bin	0.031818185	3
bin	0.032727276	5
bin	0.033636367	4
bin	0.034545458	4
bin	0.035454549	4
bin	0.03636364	1
bin	0.037272731	2
bin	0.038181822	4
bin	0.039090913	3
bin	0.040000004	2
bin	0.040909095	3
bin	0.041818186	3
bin	0.042727277	3
bin	0.043636368	0
bin	0.044545459	0
bin	0.04545455	2
bin	0.046363641	1
bin	0.047272732	0
bin	0.048181823	1
bin	0.049090914	2
bin	0.05	22
scalar BasicTopology.peer[4].networkLayer.arp 	failedResolution:count 	0
attr title  "ARP failed resolutions, count"
scalar BasicTopology.peer[4].networkLayer.arp 	initiatedResolution:count 	4
attr title  "ARP initiated resolutions, count"
scalar BasicTopology.peer[4].networkLayer.arp 	sentReplies:count 	0
attr title  "ARP replies sent, count"
scalar BasicTopology.peer[4].networkLayer.arp 	sentReq:count 	4
attr title  "ARP request sent, count"
scalar BasicTopology.peer[4].wlan[0].mgmt 	dropPkByQueue:count 	582
attr interpolationmode  none
attr source  dropPkByQueue
attr title  "packets dropped by queue, count"
scalar BasicTopology.peer[4].wlan[0].mgmt 	dropPkByQueue:sum(packetBytes) 	196818
attr interpolationmode  none
attr source  dropPkByQueue
attr title  "packets dropped by queue, sum(packetBytes)"
scalar BasicTopology.peer[4].wlan[0].mgmt 	dataQueueLen:max 	10
attr interpolationmode  sample-hold
attr title  "data queue length, max"
scalar BasicTopology.peer[4].wlan[0].mgmt 	dataQueueLen:timeavg 	0.29605562681904
attr interpolationmode  sample-hold
attr title  "data queue length, timeavg"
scalar BasicTopology.peer[4].wlan[0].mac 	"number of received packets" 	31308
scalar BasicTopology.peer[4].wlan[0].mac 	"number of collisions" 	76260
scalar BasicTopology.peer[4].wlan[0].mac 	"number of internal collisions" 	0
scalar BasicTopology.peer[4].wlan[0].mac 	"number of retry for AC 0" 	23244
scalar BasicTopology.peer[4].wlan[0].mac 	"sent and receive bites" 	91909896
scalar BasicTopology.peer[4].wlan[0].mac 	"sent packet within AC 0" 	31819
scalar BasicTopology.peer[4].wlan[0].mac 	"sent in TXOP " 	0
scalar BasicTopology.peer[4].wlan[0].mac 	"sentWithoutRetry AC 0" 	20353
scalar BasicTopology.peer[4].wlan[0].mac 	"numGivenUp AC 0" 	145
scalar BasicTopology.peer[4].wlan[0].mac 	"numDropped AC 0" 	0
scalar BasicTopology.peer[4].wlan[0].radio 	lossRate:min 	0
attr interpolationmode  backward-sample-hold
attr title  "packet loss rate, min"
scalar BasicTopology.peer[4].wlan[0].radio 	lossRate:max 	0.48
attr interpolationmode  backward-sample-hold
attr title  "packet loss rate, max"
scalar BasicTopology.peer[4].wlan[0].radio 	lossRate:timeavg 	0.074297669941889
attr interpolationmode  backward-sample-hold
attr title  "packet loss rate, timeavg"
scalar BasicTopology.peer[4].wlan[0].radio 	radioState:count 	3719292
attr interpolationmode  sample-hold
attr title  "radio state (enum), count"
statistic BasicTopology.peer[4].wlan[0].radio 	channelNo:histogram
field count 0
field mean 0
field stddev -nan
field sum 0
field sqrsum 0
field min 0
field max 0
attr interpolationmode  sample-hold
attr title  "channel no, histogram"
bin	-INF	0
bin	-0.5	0
bin	-0.46666666666667	0
bin	-0.43333333333333	0
bin	-0.4	0
bin	-0.36666666666667	0
bin	-0.33333333333333	0
bin	-0.3	0
bin	-0.26666666666667	0
bin	-0.23333333333333	0
bin	-0.2	0
bin	-0.16666666666667	0
bin	-0.13333333333333	0
bin	-0.1	0
bin	-0.066666666666667	0
bin	-0.033333333333333	0
bin	0	0
bin	0.033333333333333	0
bin	0.066666666666667	0
bin	0.1	0
bin	0.13333333333333	0
bin	0.16666666666667	0
bin	0.2	0
bin	0.23333333333333	0
bin	0.26666666666667	0
bin	0.3	0
bin	0.33333333333333	0
bin	0.36666666666667	0
bin	0.4	0
bin	0.43333333333333	0
bin	0.46666666666667	0
bin	0.5	0
scalar BasicTopology.peer[4].wlan[0].radio 	bitrate:min 	-nan
attr interpolationmode  sample-hold
attr title  "tx bitrate, min"
attr unit  bps
scalar BasicTopology.peer[4].wlan[0].radio 	bitrate:max 	-nan
attr interpolationmode  sample-hold
attr title  "tx bitrate, max"
attr unit  bps
scalar BasicTopology.peer[4].wlan[0].radio 	bitrate:timeavg 	-nan
attr interpolationmode  sample-hold
attr title  "tx bitrate, timeavg"
attr unit  bps
statistic BasicTopology.peer[4].bitTorrentApp.swarmManager 	ContentManager_PieceDownloadTime:histogram
field count 0
field mean 0
field stddev -nan
field sum 0
field sqrsum 0
field min 0
field max 0
attr title  "Swarm Piece Download Time, histogram"
bin	-INF	0
bin	-0.5	0
bin	-0.46666666666667	0
bin	-0.43333333333333	0
bin	-0.4	0
bin	-0.36666666666667	0
bin	-0.33333333333333	0
bin	-0.3	0
bin	-0.26666666666667	0
bin	-0.23333333333333	0
bin	-0.2	0
bin	-0.16666666666667	0
bin	-0.13333333333333	0
bin	-0.1	0
bin	-0.066666666666667	0
bin	-0.033333333333333	0
bin	0	0
bin	0.033333333333333	0
bin	0.066666666666667	0
bin	0.1	0
bin	0.13333333333333	0
bin	0.16666666666667	0
bin	0.2	0
bin	0.23333333333333	0
bin	0.26666666666667	0
bin	0.3	0
bin	0.33333333333333	0
bin	0.36666666666667	0
bin	0.4	0
bin	0.43333333333333	0
bin	0.46666666666667	0
bin	0.5	0
statistic BasicTopology.peer[4].bitTorrentApp.swarmManager 	ContentManager_100_percentDownloadMarkTime:histogram
field count 0
field mean 0
field stddev -nan
field sum 0
field sqrsum 0
field min 0
field max 0
attr title  "100% Download Time Ordinate, histogram"
attr unit  s
bin	-INF	0
bin	-0.5	0
bin	-0.46666666666667	0
bin	-0.43333333333333	0
bin	-0.4	0
bin	-0.36666666666667	0
bin	-0.33333333333333	0
bin	-0.3	0
bin	-0.26666666666667	0
bin	-0.23333333333333	0
bin	-0.2	0
bin	-0.16666666666667	0
bin	-0.13333333333333	0
bin	-0.1	0
bin	-0.066666666666667	0
bin	-0.033333333333333	0
bin	0	0
bin	0.033333333333333	0
bin	0.066666666666667	0
bin	0.1	0
bin	0.13333333333333	0
bin	0.16666666666667	0
bin	0.2	0
bin	0.23333333333333	0
bin	0.26666666666667	0
bin	0.3	0
bin	0.33333333333333	0
bin	0.36666666666667	0
bin	0.4	0
bin	0.43333333333333	0
bin	0.46666666666667	0
bin	0.5	0
statistic BasicTopology.peer[4].bitTorrentApp.swarmManager 	ContentManager_75_percentDownloadMarkTime:histogram
field count 0
field mean 0
field stddev -nan
field sum 0
field sqrsum 0
field min 0
field max 0
attr title  "75% Download Time Ordinate, histogram"
attr unit  s
bin	-INF	0
bin	-0.5	0
bin	-0.46666666666667	0
bin	-0.43333333333333	0
bin	-0.4	0
bin	-0.36666666666667	0
bin	-0.33333333333333	0
bin	-0.3	0
bin	-0.26666666666667	0
bin	-0.23333333333333	0
bin	-0.2	0
bin	-0.16666666666667	0
bin	-0.13333333333333	0
bin	-0.1	0
bin	-0.066666666666667	0
bin	-0.033333333333333	0
bin	0	0
bin	0.033333333333333	0
bin	0.066666666666667	0
bin	0.1	0
bin	0.13333333333333	0
bin	0.16666666666667	0
bin	0.2	0
bin	0.23333333333333	0
bin	0.26666666666667	0
bin	0.3	0
bin	0.33333333333333	0
bin	0.36666666666667	0
bin	0.4	0
bin	0.43333333333333	0
bin	0.46666666666667	0
bin	0.5	0
statistic BasicTopology.peer[4].bitTorrentApp.swarmManager 	ContentManager_50_percentDownloadMarkTime:histogram
field count 0
field mean 0
field stddev -nan
field sum 0
field sqrsum 0
field min 0
field max 0
attr title  "50% Download Time Ordinate, histogram"
attr unit  s
bin	-INF	0
bin	-0.5	0
bin	-0.46666666666667	0
bin	-0.43333333333333	0
bin	-0.4	0
bin	-0.36666666666667	0
bin	-0.33333333333333	0
bin	-0.3	0
bin	-0.26666666666667	0
bin	-0.23333333333333	0
bin	-0.2	0
bin	-0.16666666666667	0
bin	-0.13333333333333	0
bin	-0.1	0
bin	-0.066666666666667	0
bin	-0.033333333333333	0
bin	0	0
bin	0.033333333333333	0
bin	0.066666666666667	0
bin	0.1	0
bin	0.13333333333333	0
bin	0.16666666666667	0
bin	0.2	0
bin	0.23333333333333	0
bin	0.26666666666667	0
bin	0.3	0
bin	0.33333333333333	0
bin	0.36666666666667	0
bin	0.4	0
bin	0.43333333333333	0
bin	0.46666666666667	0
bin	0.5	0
statistic BasicTopology.peer[4].bitTorrentApp.swarmManager 	ContentManager_25_percentDownloadMarkTime:histogram
field count 0
field mean 0
field stddev -nan
field sum 0
field sqrsum 0
field min 0
field max 0
attr title  "25% Download Time Ordinate, histogram"
attr unit  s
bin	-INF	0
bin	-0.5	0
bin	-0.46666666666667	0
bin	-0.43333333333333	0
bin	-0.4	0
bin	-0.36666666666667	0
bin	-0.33333333333333	0
bin	-0.3	0
bin	-0.26666666666667	0
bin	-0.23333333333333	0
bin	-0.2	0
bin	-0.16666666666667	0
bin	-0.13333333333333	0
bin	-0.1	0
bin	-0.066666666666667	0
bin	-0.033333333333333	0
bin	0	0
bin	0.033333333333333	0
bin	0.066666666666667	0
bin	0.1	0
bin	0.13333333333333	0
bin	0.16666666666667	0
bin	0.2	0
bin	0.23333333333333	0
bin	0.26666666666667	0
bin	0.3	0
bin	0.33333333333333	0
bin	0.36666666666667	0
bin	0.4	0
bin	0.43333333333333	0
bin	0.46666666666667	0
bin	0.5	0
scalar BasicTopology.peer[4].bitTorrentApp.swarmManager 	SwarmManager_EnteredSwarm:last 	-nan
attr title  "Enter Swarm Instant, last"
scalar BasicTopology.peer[4].bitTorrentApp.bitTorrentClient.contentManager_26 	ContentManager_75_percentDownloadMarkTime:last 	-nan
attr title  "75% Download Time Ordinate, last"
attr unit  s
scalar BasicTopology.peer[4].bitTorrentApp.bitTorrentClient.contentManager_26 	ContentManager_50_percentDownloadMarkTime:last 	-nan
attr title  "50% Download Time Ordinate, last"
attr unit  s
scalar BasicTopology.peer[4].bitTorrentApp.bitTorrentClient.contentManager_26 	ContentManager_25_percentDownloadMarkTime:last 	-nan
attr title  "25% Download Time Ordinate, last"
attr unit  s
statistic BasicTopology.peer[4].bitTorrentApp.bitTorrentClient 	"Piece processing time histogram"
field count 2936
field mean 0.0073639305177112
field stddev 0.0099766190078884
field sum 21.6205
field sqrsum 0.451341
field min 0
field max 0.102482
bin	-INF	0
bin	0	936
bin	0.000909091	352
bin	0.001818182	155
bin	0.002727273	108
bin	0.003636364	126
bin	0.004545455	111
bin	0.005454546	58
bin	0.006363637	55
bin	0.007272728	27
bin	0.008181819	55
bin	0.00909091	55
bin	0.010000001	85
bin	0.010909092	81
bin	0.011818183	66
bin	0.012727274	70
bin	0.013636365	71
bin	0.014545456	54
bin	0.015454547	41
bin	0.016363638	49
bin	0.017272729	44
bin	0.01818182	40
bin	0.019090911	33
bin	0.020000002	31
bin	0.020909093	22
bin	0.021818184	27
bin	0.022727275	16
bin	0.023636366	16
bin	0.024545457	14
bin	0.025454548	15
bin	0.026363639	9
bin	0.02727273	11
bin	0.028181821	11
bin	0.029090912	5
bin	0.030000003	9
bin	0.030909094	9
bin	0.031818185	3
bin	0.032727276	5
bin	0.033636367	4
bin	0.034545458	4
bin	0.035454549	4
bin	0.03636364	1
bin	0.037272731	2
bin	0.038181822	4
bin	0.039090913	3
bin	0.040000004	2
bin	0.040909095	3
bin	0.041818186	3
bin	0.042727277	3
bin	0.043636368	0
bin	0.044545459	0
bin	0.04545455	2
bin	0.046363641	1
bin	0.047272732	0
bin	0.048181823	1
bin	0.049090914	2
bin	0.05	22
scalar BasicTopology.peer[5].networkLayer.arp 	failedResolution:count 	0
attr title  "ARP failed resolutions, count"
scalar BasicTopology.peer[5].networkLayer.arp 	initiatedResolution:count 	8
attr title  "ARP initiated resolutions, count"
scalar BasicTopology.peer[5].networkLayer.arp 	sentReplies:count 	0
attr title  "ARP replies sent, count"
scalar BasicTopology.peer[5].networkLayer.arp 	sentReq:count 	9
attr title  "ARP request sent, count"
scalar BasicTopology.peer[5].wlan[0].mgmt 	dropPkByQueue:count 	878
attr interpolationmode  none
attr source  dropPkByQueue
attr title  "packets dropped by queue, count"
scalar BasicTopology.peer[5].wlan[0].mgmt 	dropPkByQueue:sum(packetBytes) 	233184
attr interpolationmode  none
attr source  dropPkByQueue
attr title  "packets dropped by queue, sum(packetBytes)"
scalar BasicTopology.peer[5].wlan[0].mgmt 	dataQueueLen:max 	10
attr interpolationmode  sample-hold
attr title  "data queue length, max"
scalar BasicTopology.peer[5].wlan[0].mgmt 	dataQueueLen:timeavg 	0.51104386752024
attr interpolationmode  sample-hold
attr title  "data queue length, timeavg"
scalar BasicTopology.peer[5].wlan[0].mac 	"number of received packets" 	112979
scalar BasicTopology.peer[5].wlan[0].mac 	"number of collisions" 	71220
scalar BasicTopology.peer[5].wlan[0].mac 	"number of internal collisions" 	0
scalar BasicTopology.peer[5].wlan[0].mac 	"number of retry for AC 0" 	57683
scalar BasicTopology.peer[5].wlan[0].mac 	"sent and receive bites" 	307723552
scalar BasicTopology.peer[5].wlan[0].mac 	"sent packet within AC 0" 	111821
scalar BasicTopology.peer[5].wlan[0].mac 	"sent in TXOP " 	0
scalar BasicTopology.peer[5].wlan[0].mac 	"sentWithoutRetry AC 0" 	81543
scalar BasicTopology.peer[5].wlan[0].mac 	"numGivenUp AC 0" 	335
scalar BasicTopology.peer[5].wlan[0].mac 	"numDropped AC 0" 	0
scalar BasicTopology.peer[5].wlan[0].radio 	lossRate:min 	0
attr interpolationmode  backward-sample-hold
attr title  "packet loss rate, min"
scalar BasicTopology.peer[5].wlan[0].radio 	lossRate:max 	0.5
attr interpolationmode  backward-sample-hold
attr title  "packet loss rate, max"
scalar BasicTopology.peer[5].wlan[0].radio 	lossRate:timeavg 	0.090831571786966
attr interpolationmode  backward-sample-hold
attr title  "packet loss rate, timeavg"
scalar BasicTopology.peer[5].wlan[0].radio 	radioState:count 	3718154
attr interpolationmode  sample-hold
attr title  "radio state (enum), count"
statistic BasicTopology.peer[5].wlan[0].radio 	channelNo:histogram
field count 0
field mean 0
field stddev -nan
field sum 0
field sqrsum 0
field min 0
field max 0
attr interpolationmode  sample-hold
attr title  "channel no, histogram"
bin	-INF	0
bin	-0.5	0
bin	-0.46666666666667	0
bin	-0.43333333333333	0
bin	-0.4	0
bin	-0.36666666666667	0
bin	-0.33333333333333	0
bin	-0.3	0
bin	-0.26666666666667	0
bin	-0.23333333333333	0
bin	-0.2	0
bin	-0.16666666666667	0
bin	-0.13333333333333	0
bin	-0.1	0
bin	-0.066666666666667	0
bin	-0.033333333333333	0
bin	0	0
bin	0.033333333333333	0
bin	0.066666666666667	0
bin	0.1	0
bin	0.13333333333333	0
bin	0.16666666666667	0
bin	0.2	0
bin	0.23333333333333	0
bin	0.26666666666667	0
bin	0.3	0
bin	0.33333333333333	0
bin	0.36666666666667	0
bin	0.4	0
bin	0.43333333333333	0
bin	0.46666666666667	0
bin	0.5	0
scalar BasicTopology.peer[5].wlan[0].radio 	bitrate:min 	-nan
attr interpolationmode  sample-hold
attr title  "tx bitrate, min"
attr unit  bps
scalar BasicTopology.peer[5].wlan[0].radio 	bitrate:max 	-nan
attr interpolationmode  sample-hold
attr title  "tx bitrate, max"
attr unit  bps
scalar BasicTopology.peer[5].wlan[0].radio 	bitrate:timeavg 	-nan
attr interpolationmode  sample-hold
attr title  "tx bitrate, timeavg"
attr unit  bps
statistic BasicTopology.peer[5].bitTorrentApp.swarmManager 	ContentManager_PieceDownloadTime:histogram
field count 0
field mean 0
field stddev -nan
field sum 0
field sqrsum 0
field min 0
field max 0
attr title  "Swarm Piece Download Time, histogram"
bin	-INF	0
bin	-0.5	0
bin	-0.46666666666667	0
bin	-0.43333333333333	0
bin	-0.4	0
bin	-0.36666666666667	0
bin	-0.33333333333333	0
bin	-0.3	0
bin	-0.26666666666667	0
bin	-0.23333333333333	0
bin	-0.2	0
bin	-0.16666666666667	0
bin	-0.13333333333333	0
bin	-0.1	0
bin	-0.066666666666667	0
bin	-0.033333333333333	0
bin	0	0
bin	0.033333333333333	0
bin	0.066666666666667	0
bin	0.1	0
bin	0.13333333333333	0
bin	0.16666666666667	0
bin	0.2	0
bin	0.23333333333333	0
bin	0.26666666666667	0
bin	0.3	0
bin	0.33333333333333	0
bin	0.36666666666667	0
bin	0.4	0
bin	0.43333333333333	0
bin	0.46666666666667	0
bin	0.5	0
statistic BasicTopology.peer[5].bitTorrentApp.swarmManager 	ContentManager_100_percentDownloadMarkTime:histogram
field count 0
field mean 0
field stddev -nan
field sum 0
field sqrsum 0
field min 0
field max 0
attr title  "100% Download Time Ordinate, histogram"
attr unit  s
bin	-INF	0
bin	-0.5	0
bin	-0.46666666666667	0
bin	-0.43333333333333	0
bin	-0.4	0
bin	-0.36666666666667	0
bin	-0.33333333333333	0
bin	-0.3	0
bin	-0.26666666666667	0
bin	-0.23333333333333	0
bin	-0.2	0
bin	-0.16666666666667	0
bin	-0.13333333333333	0
bin	-0.1	0
bin	-0.066666666666667	0
bin	-0.033333333333333	0
bin	0	0
bin	0.033333333333333	0
bin	0.066666666666667	0
bin	0.1	0
bin	0.13333333333333	0
bin	0.16666666666667	0
bin	0.2	0
bin	0.23333333333333	0
bin	0.26666666666667	0
bin	0.3	0
bin	0.33333333333333	0
bin	0.36666666666667	0
bin	0.4	0
bin	0.43333333333333	0
bin	0.46666666666667	0
bin	0.5	0
statistic BasicTopology.peer[5].bitTorrentApp.swarmManager 	ContentManager_75_percentDownloadMarkTime:histogram
field count 0
field mean 0
field stddev -nan
field sum 0
field sqrsum 0
field min 0
field max 0
attr title  "75% Download Time Ordinate, histogram"
attr unit  s
bin	-INF	0
bin	-0.5	0
bin	-0.46666666666667	0
bin	-0.43333333333333	0
bin	-0.4	0
bin	-0.36666666666667	0
bin	-0.33333333333333	0
bin	-0.3	0
bin	-0.26666666666667	0
bin	-0.23333333333333	0
bin	-0.2	0
bin	-0.16666666666667	0
bin	-0.13333333333333	0
bin	-0.1	0
bin	-0.066666666666667	0
bin	-0.033333333333333	0
bin	0	0
bin	0.033333333333333	0
bin	0.066666666666667	0
bin	0.1	0
bin	0.13333333333333	0
bin	0.16666666666667	0
bin	0.2	0
bin	0.23333333333333	0
bin	0.26666666666667	0
bin	0.3	0
bin	0.33333333333333	0
bin	0.36666666666667	0
bin	0.4	0
bin	0.43333333333333	0
bin	0.46666666666667	0
bin	0.5	0
statistic BasicTopology.peer[5].bitTorrentApp.swarmManager 	ContentManager_50_percentDownloadMarkTime:histogram
field count 0
field mean 0
field stddev -nan
field sum 0
field sqrsum 0
field min 0
field max 0
attr title  "50% Download Time Ordinate, histogram"
attr unit  s
bin	-INF	0
bin	-0.5	0
bin	-0.46666666666667	0
bin	-0.43333333333333	0
bin	-0.4	0
bin	-0.36666666666667	0
bin	-0.33333333333333	0
bin	-0.3	0
bin	-0.26666666666667	0
bin	-0.23333333333333	0
bin	-0.2	0
bin	-0.16666666666667	0
bin	-0.13333333333333	0
bin	-0.1	0
bin	-0.066666666666667	0
bin	-0.033333333333333	0
bin	0	0
bin	0.033333333333333	0
bin	0.066666666666667	0
bin	0.1	0
bin	0.13333333333333	0
bin	0.16666666666667	0
bin	0.2	0
bin	0.23333333333333	0
bin	0.26666666666667	0
bin	0.3	0
bin	0.33333333333333	0
bin	0.36666666666667	0
bin	0.4	0
bin	0.43333333333333	0
bin	0.46666666666667	0
bin	0.5	0
statistic BasicTopology.peer[5].bitTorrentApp.swarmManager 	ContentManager_25_percentDownloadMarkTime:histogram
field count 0
field mean 0
field stddev -nan
field sum 0
field sqrsum 0
field min 0
field max 0
attr title  "25% Download Time Ordinate, histogram"
attr unit  s
bin	-INF	0
bin	-0.5	0
bin	-0.46666666666667	0
bin	-0.43333333333333	0
bin	-0.4	0
bin	-0.36666666666667	0
bin	-0.33333333333333	0
bin	-0.3	0
bin	-0.26666666666667	0
bin	-0.23333333333333	0
bin	-0.2	0
bin	-0.16666666666667	0
bin	-0.13333333333333	0
bin	-0.1	0
bin	-0.066666666666667	0
bin	-0.033333333333333	0
bin	0	0
bin	0.033333333333333	0
bin	0.066666666666667	0
bin	0.1	0
bin	0.13333333333333	0
bin	0.16666666666667	0
bin	0.2	0
bin	0.23333333333333	0
bin	0.26666666666667	0
bin	0.3	0
bin	0.33333333333333	0
bin	0.36666666666667	0
bin	0.4	0
bin	0.43333333333333	0
bin	0.46666666666667	0
bin	0.5	0
scalar BasicTopology.peer[5].bitTorrentApp.swarmManager 	SwarmManager_EnteredSwarm:last 	-nan
attr title  "Enter Swarm Instant, last"
scalar BasicTopology.peer[5].bitTorrentApp.bitTorrentClient.contentManager_26 	ContentManager_75_percentDownloadMarkTime:last 	-nan
attr title  "75% Download Time Ordinate, last"
attr unit  s
scalar BasicTopology.peer[5].bitTorrentApp.bitTorrentClient.contentManager_26 	ContentManager_50_percentDownloadMarkTime:last 	-nan
attr title  "50% Download Time Ordinate, last"
attr unit  s
scalar BasicTopology.peer[5].bitTorrentApp.bitTorrentClient.contentManager_26 	ContentManager_25_percentDownloadMarkTime:last 	-nan
attr title  "25% Download Time Ordinate, last"
attr unit  s
statistic BasicTopology.peer[5].bitTorrentApp.bitTorrentClient 	"Piece processing time histogram"
field count 2936
field mean 0.0073639305177112
field stddev 0.0099766190078884
field sum 21.6205
field sqrsum 0.451341
field min 0
field max 0.102482
bin	-INF	0
bin	0	936
bin	0.000909091	352
bin	0.001818182	155
bin	0.002727273	108
bin	0.003636364	126
bin	0.004545455	111
bin	0.005454546	58
bin	0.006363637	55
bin	0.007272728	27
bin	0.008181819	55
bin	0.00909091	55
bin	0.010000001	85
bin	0.010909092	81
bin	0.011818183	66
bin	0.012727274	70
bin	0.013636365	71
bin	0.014545456	54
bin	0.015454547	41
bin	0.016363638	49
bin	0.017272729	44
bin	0.01818182	40
bin	0.019090911	33
bin	0.020000002	31
bin	0.020909093	22
bin	0.021818184	27
bin	0.022727275	16
bin	0.023636366	16
bin	0.024545457	14
bin	0.025454548	15
bin	0.026363639	9
bin	0.02727273	11
bin	0.028181821	11
bin	0.029090912	5
bin	0.030000003	9
bin	0.030909094	9
bin	0.031818185	3
bin	0.032727276	5
bin	0.033636367	4
bin	0.034545458	4
bin	0.035454549	4
bin	0.03636364	1
bin	0.037272731	2
bin	0.038181822	4
bin	0.039090913	3
bin	0.040000004	2
bin	0.040909095	3
bin	0.041818186	3
bin	0.042727277	3
bin	0.043636368	0
bin	0.044545459	0
bin	0.04545455	2
bin	0.046363641	1
bin	0.047272732	0
bin	0.048181823	1
bin	0.049090914	2
bin	0.05	22
scalar BasicTopology.peer[6].networkLayer.arp 	failedResolution:count 	0
attr title  "ARP failed resolutions, count"
scalar BasicTopology.peer[6].networkLayer.arp 	initiatedResolution:count 	6
attr title  "ARP initiated resolutions, count"
scalar BasicTopology.peer[6].networkLayer.arp 	sentReplies:count 	0
attr title  "ARP replies sent, count"
scalar BasicTopology.peer[6].networkLayer.arp 	sentReq:count 	6
attr title  "ARP request sent, count"
scalar BasicTopology.peer[6].wlan[0].mgmt 	dropPkByQueue:count 	325
attr interpolationmode  none
attr source  dropPkByQueue
attr title  "packets dropped by queue, count"
scalar BasicTopology.peer[6].wlan[0].mgmt 	dropPkByQueue:sum(packetBytes) 	58065
attr interpolationmode  none
attr source  dropPkByQueue
attr title  "packets dropped by queue, sum(packetBytes)"
scalar BasicTopology.peer[6].wlan[0].mgmt 	dataQueueLen:max 	10
attr interpolationmode  sample-hold
attr title  "data queue length, max"
scalar BasicTopology.peer[6].wlan[0].mgmt 	dataQueueLen:timeavg 	0.13577275142324
attr interpolationmode  sample-hold
attr title  "data queue length, timeavg"
scalar BasicTopology.peer[6].wlan[0].mac 	"number of received packets" 	38394
scalar BasicTopology.peer[6].wlan[0].mac 	"number of collisions" 	50508
scalar BasicTopology.peer[6].wlan[0].mac 	"number of internal collisions" 	0
scalar BasicTopology.peer[6].wlan[0].mac 	"number of retry for AC 0" 	19293
scalar BasicTopology.peer[6].wlan[0].mac 	"sent and receive bites" 	92539072
scalar BasicTopology.peer[6].wlan[0].mac 	"sent packet within AC 0" 	38405
scalar BasicTopology.peer[6].wlan[0].mac 	"sent in TXOP " 	0
scalar BasicTopology.peer[6].wlan[0].mac 	"sentWithoutRetry AC 0" 	28246
scalar BasicTopology.peer[6].wlan[0].mac 	"numGivenUp AC 0" 	123
scalar BasicTopology.peer[6].wlan[0].mac 	"numDropped AC 0" 	0
scalar BasicTopology.peer[6].wlan[0].radio 	lossRate:min 	0
attr interpolationmode  backward-sample-hold
attr title  "packet loss rate, min"
scalar BasicTopology.peer[6].wlan[0].radio 	lossRate:max 	0.36
attr interpolationmode  backward-sample-hold
attr title  "packet loss rate, max"
scalar BasicTopology.peer[6].wlan[0].radio 	lossRate:timeavg 	0.062249858500133
attr interpolationmode  backward-sample-hold
attr title  "packet loss rate, timeavg"
scalar BasicTopology.peer[6].wlan[0].radio 	radioState:count 	3002008
attr interpolationmode  sample-hold
attr title  "radio state (enum), count"
statistic BasicTopology.peer[6].wlan[0].radio 	channelNo:histogram
field count 0
field mean 0
field stddev -nan
field sum 0
field sqrsum 0
field min 0
field max 0
attr interpolationmode  sample-hold
attr title  "channel no, histogram"
bin	-INF	0
bin	-0.5	0
bin	-0.46666666666667	0
bin	-0.43333333333333	0
bin	-0.4	0
bin	-0.36666666666667	0
bin	-0.33333333333333	0
bin	-0.3	0
bin	-0.26666666666667	0
bin	-0.23333333333333	0
bin	-0.2	0
bin	-0.16666666666667	0
bin	-0.13333333333333	0
bin	-0.1	0
bin	-0.066666666666667	0
bin	-0.033333333333333	0
bin	0	0
bin	0.033333333333333	0
bin	0.066666666666667	0
bin	0.1	0
bin	0.13333333333333	0
bin	0.16666666666667	0
bin	0.2	0
bin	0.23333333333333	0
bin	0.26666666666667	0
bin	0.3	0
bin	0.33333333333333	0
bin	0.36666666666667	0
bin	0.4	0
bin	0.43333333333333	0
bin	0.46666666666667	0
bin	0.5	0
scalar BasicTopology.peer[6].wlan[0].radio 	bitrate:min 	-nan
attr interpolationmode  sample-hold
attr title  "tx bitrate, min"
attr unit  bps
scalar BasicTopology.peer[6].wlan[0].radio 	bitrate:max 	-nan
attr interpolationmode  sample-hold
attr title  "tx bitrate, max"
attr unit  bps
scalar BasicTopology.peer[6].wlan[0].radio 	bitrate:timeavg 	-nan
attr interpolationmode  sample-hold
attr title  "tx bitrate, timeavg"
attr unit  bps
statistic BasicTopology.peer[6].bitTorrentApp.swarmManager 	ContentManager_PieceDownloadTime:histogram
field count 0
field mean 0
field stddev -nan
field sum 0
field sqrsum 0
field min 0
field max 0
attr title  "Swarm Piece Download Time, histogram"
bin	-INF	0
bin	-0.5	0
bin	-0.46666666666667	0
bin	-0.43333333333333	0
bin	-0.4	0
bin	-0.36666666666667	0
bin	-0.33333333333333	0
bin	-0.3	0
bin	-0.26666666666667	0
bin	-0.23333333333333	0
bin	-0.2	0
bin	-0.16666666666667	0
bin	-0.13333333333333	0
bin	-0.1	0
bin	-0.066666666666667	0
bin	-0.033333333333333	0
bin	0	0
bin	0.033333333333333	0
bin	0.066666666666667	0
bin	0.1	0
bin	0.13333333333333	0
bin	0.16666666666667	0
bin	0.2	0
bin	0.23333333333333	0
bin	0.26666666666667	0
bin	0.3	0
bin	0.33333333333333	0
bin	0.36666666666667	0
bin	0.4	0
bin	0.43333333333333	0
bin	0.46666666666667	0
bin	0.5	0
statistic BasicTopology.peer[6].bitTorrentApp.swarmManager 	ContentManager_100_percentDownloadMarkTime:histogram
field count 0
field mean 0
field stddev -nan
field sum 0
field sqrsum 0
field min 0
field max 0
attr title  "100% Download Time Ordinate, histogram"
attr unit  s
bin	-INF	0
bin	-0.5	0
bin	-0.46666666666667	0
bin	-0.43333333333333	0
bin	-0.4	0
bin	-0.36666666666667	0
bin	-0.33333333333333	0
bin	-0.3	0
bin	-0.26666666666667	0
bin	-0.23333333333333	0
bin	-0.2	0
bin	-0.16666666666667	0
bin	-0.13333333333333	0
bin	-0.1	0
bin	-0.066666666666667	0
bin	-0.033333333333333	0
bin	0	0
bin	0.033333333333333	0
bin	0.066666666666667	0
bin	0.1	0
bin	0.13333333333333	0
bin	0.16666666666667	0
bin	0.2	0
bin	0.23333333333333	0
bin	0.26666666666667	0
bin	0.3	0
bin	0.33333333333333	0
bin	0.36666666666667	0
bin	0.4	0
bin	0.43333333333333	0
bin	0.46666666666667	0
bin	0.5	0
statistic BasicTopology.peer[6].bitTorrentApp.swarmManager 	ContentManager_75_percentDownloadMarkTime:histogram
field count 0
field mean 0
field stddev -nan
field sum 0
field sqrsum 0
field min 0
field max 0
attr title  "75% Download Time Ordinate, histogram"
attr unit  s
bin	-INF	0
bin	-0.5	0
bin	-0.46666666666667	0
bin	-0.43333333333333	0
bin	-0.4	0
bin	-0.36666666666667	0
bin	-0.33333333333333	0
bin	-0.3	0
bin	-0.26666666666667	0
bin	-0.23333333333333	0
bin	-0.2	0
bin	-0.16666666666667	0
bin	-0.13333333333333	0
bin	-0.1	0
bin	-0.066666666666667	0
bin	-0.033333333333333	0
bin	0	0
bin	0.033333333333333	0
bin	0.066666666666667	0
bin	0.1	0
bin	0.13333333333333	0
bin	0.16666666666667	0
bin	0.2	0
bin	0.23333333333333	0
bin	0.26666666666667	0
bin	0.3	0
bin	0.33333333333333	0
bin	0.36666666666667	0
bin	0.4	0
bin	0.43333333333333	0
bin	0.46666666666667	0
bin	0.5	0
statistic BasicTopology.peer[6].bitTorrentApp.swarmManager 	ContentManager_50_percentDownloadMarkTime:histogram
field count 0
field mean 0
field stddev -nan
field sum 0
field sqrsum 0
field min 0
field max 0
attr title  "50% Download Time Ordinate, histogram"
attr unit  s
bin	-INF	0
bin	-0.5	0
bin	-0.46666666666667	0
bin	-0.43333333333333	0
bin	-0.4	0
bin	-0.36666666666667	0
bin	-0.33333333333333	0
bin	-0.3	0
bin	-0.26666666666667	0
bin	-0.23333333333333	0
bin	-0.2	0
bin	-0.16666666666667	0
bin	-0.13333333333333	0
bin	-0.1	0
bin	-0.066666666666667	0
bin	-0.033333333333333	0
bin	0	0
bin	0.033333333333333	0
bin	0.066666666666667	0
bin	0.1	0
bin	0.13333333333333	0
bin	0.16666666666667	0
bin	0.2	0
bin	0.23333333333333	0
bin	0.26666666666667	0
bin	0.3	0
bin	0.33333333333333	0
bin	0.36666666666667	0
bin	0.4	0
bin	0.43333333333333	0
bin	0.46666666666667	0
bin	0.5	0
statistic BasicTopology.peer[6].bitTorrentApp.swarmManager 	ContentManager_25_percentDownloadMarkTime:histogram
field count 0
field mean 0
field stddev -nan
field sum 0
field sqrsum 0
field min 0
field max 0
attr title  "25% Download Time Ordinate, histogram"
attr unit  s
bin	-INF	0
bin	-0.5	0
bin	-0.46666666666667	0
bin	-0.43333333333333	0
bin	-0.4	0
bin	-0.36666666666667	0
bin	-0.33333333333333	0
bin	-0.3	0
bin	-0.26666666666667	0
bin	-0.23333333333333	0
bin	-0.2	0
bin	-0.16666666666667	0
bin	-0.13333333333333	0
bin	-0.1	0
bin	-0.066666666666667	0
bin	-0.033333333333333	0
bin	0	0
bin	0.033333333333333	0
bin	0.066666666666667	0
bin	0.1	0
bin	0.13333333333333	0
bin	0.16666666666667	0
bin	0.2	0
bin	0.23333333333333	0
bin	0.26666666666667	0
bin	0.3	0
bin	0.33333333333333	0
bin	0.36666666666667	0
bin	0.4	0
bin	0.43333333333333	0
bin	0.46666666666667	0
bin	0.5	0
scalar BasicTopology.peer[6].bitTorrentApp.swarmManager 	SwarmManager_EnteredSwarm:last 	-nan
attr title  "Enter Swarm Instant, last"
scalar BasicTopology.peer[6].bitTorrentApp.bitTorrentClient.contentManager_26 	ContentManager_75_percentDownloadMarkTime:last 	-nan
attr title  "75% Download Time Ordinate, last"
attr unit  s
scalar BasicTopology.peer[6].bitTorrentApp.bitTorrentClient.contentManager_26 	ContentManager_50_percentDownloadMarkTime:last 	-nan
attr title  "50% Download Time Ordinate, last"
attr unit  s
scalar BasicTopology.peer[6].bitTorrentApp.bitTorrentClient.contentManager_26 	ContentManager_25_percentDownloadMarkTime:last 	-nan
attr title  "25% Download Time Ordinate, last"
attr unit  s
statistic BasicTopology.peer[6].bitTorrentApp.bitTorrentClient 	"Piece processing time histogram"
field count 2936
field mean 0.0073639305177112
field stddev 0.0099766190078884
field sum 21.6205
field sqrsum 0.451341
field min 0
field max 0.102482
bin	-INF	0
bin	0	936
bin	0.000909091	352
bin	0.001818182	155
bin	0.002727273	108
bin	0.003636364	126
bin	0.004545455	111
bin	0.005454546	58
bin	0.006363637	55
bin	0.007272728	27
bin	0.008181819	55
bin	0.00909091	55
bin	0.010000001	85
bin	0.010909092	81
bin	0.011818183	66
bin	0.012727274	70
bin	0.013636365	71
bin	0.014545456	54
bin	0.015454547	41
bin	0.016363638	49
bin	0.017272729	44
bin	0.01818182	40
bin	0.019090911	33
bin	0.020000002	31
bin	0.020909093	22
bin	0.021818184	27
bin	0.022727275	16
bin	0.023636366	16
bin	0.024545457	14
bin	0.025454548	15
bin	0.026363639	9
bin	0.02727273	11
bin	0.028181821	11
bin	0.029090912	5
bin	0.030000003	9
bin	0.030909094	9
bin	0.031818185	3
bin	0.032727276	5
bin	0.033636367	4
bin	0.034545458	4
bin	0.035454549	4
bin	0.03636364	1
bin	0.037272731	2
bin	0.038181822	4
bin	0.039090913	3
bin	0.040000004	2
bin	0.040909095	3
bin	0.041818186	3
bin	0.042727277	3
bin	0.043636368	0
bin	0.044545459	0
bin	0.04545455	2
bin	0.046363641	1
bin	0.047272732	0
bin	0.048181823	1
bin	0.049090914	2
bin	0.05	22
scalar BasicTopology.peer[7].networkLayer.arp 	failedResolution:count 	0
attr title  "ARP failed resolutions, count"
scalar BasicTopology.peer[7].networkLayer.arp 	initiatedResolution:count 	6
attr title  "ARP initiated resolutions, count"
scalar BasicTopology.peer[7].networkLayer.arp 	sentReplies:count 	0
attr title  "ARP replies sent, count"
scalar BasicTopology.peer[7].networkLayer.arp 	sentReq:count 	7
attr title  "ARP request sent, count"
scalar BasicTopology.peer[7].wlan[0].mgmt 	dropPkByQueue:count 	374
attr interpolationmode  none
attr source  dropPkByQueue
attr title  "packets dropped by queue, count"
scalar BasicTopology.peer[7].wlan[0].mgmt 	dropPkByQueue:sum(packetBytes) 	50887
attr interpolationmode  none
attr source  dropPkByQueue
attr title  "packets dropped by queue, sum(packetBytes)"
scalar BasicTopology.peer[7].wlan[0].mgmt 	dataQueueLen:max 	10
attr interpolationmode  sample-hold
attr title  "data queue length, max"
scalar BasicTopology.peer[7].wlan[0].mgmt 	dataQueueLen:timeavg 	0.087822458609558
attr interpolationmode  sample-hold
attr title  "data queue length, timeavg"
scalar BasicTopology.peer[7].wlan[0].mac 	"number of received packets" 	62753
scalar BasicTopology.peer[7].wlan[0].mac 	"number of collisions" 	24387
scalar BasicTopology.peer[7].wlan[0].mac 	"number of internal collisions" 	0
scalar BasicTopology.peer[7].wlan[0].mac 	"number of retry for AC 0" 	20740
scalar BasicTopology.peer[7].wlan[0].mac 	"sent and receive bites" 	155202616
scalar BasicTopology.peer[7].wlan[0].mac 	"sent packet within AC 0" 	62481
scalar BasicTopology.peer[7].wlan[0].mac 	"sent in TXOP " 	0
scalar BasicTopology.peer[7].wlan[0].mac 	"sentWithoutRetry AC 0" 	50350
scalar BasicTopology.peer[7].wlan[0].mac 	"numGivenUp AC 0" 	48
scalar BasicTopology.peer[7].wlan[0].mac 	"numDropped AC 0" 	0
scalar BasicTopology.peer[7].wlan[0].radio 	lossRate:min 	0
attr interpolationmode  backward-sample-hold
attr title  "packet loss rate, min"
scalar BasicTopology.peer[7].wlan[0].radio 	lossRate:max 	0.42
attr interpolationmode  backward-sample-hold
attr title  "packet loss rate, max"
scalar BasicTopology.peer[7].wlan[0].radio 	lossRate:timeavg 	0.044122050300227
attr interpolationmode  backward-sample-hold
attr title  "packet loss rate, timeavg"
scalar BasicTopology.peer[7].wlan[0].radio 	radioState:count 	2170222
attr interpolationmode  sample-hold
attr title  "radio state (enum), count"
statistic BasicTopology.peer[7].wlan[0].radio 	channelNo:histogram
field count 0
field mean 0
field stddev -nan
field sum 0
field sqrsum 0
field min 0
field max 0
attr interpolationmode  sample-hold
attr title  "channel no, histogram"
bin	-INF	0
bin	-0.5	0
bin	-0.46666666666667	0
bin	-0.43333333333333	0
bin	-0.4	0
bin	-0.36666666666667	0
bin	-0.33333333333333	0
bin	-0.3	0
bin	-0.26666666666667	0
bin	-0.23333333333333	0
bin	-0.2	0
bin	-0.16666666666667	0
bin	-0.13333333333333	0
bin	-0.1	0
bin	-0.066666666666667	0
bin	-0.033333333333333	0
bin	0	0
bin	0.033333333333333	0
bin	0.066666666666667	0
bin	0.1	0
bin	0.13333333333333	0
bin	0.16666666666667	0
bin	0.2	0
bin	0.23333333333333	0
bin	0.26666666666667	0
bin	0.3	0
bin	0.33333333333333	0
bin	0.36666666666667	0
bin	0.4	0
bin	0.43333333333333	0
bin	0.46666666666667	0
bin	0.5	0
scalar BasicTopology.peer[7].wlan[0].radio 	bitrate:min 	-nan
attr interpolationmode  sample-hold
attr title  "tx bitrate, min"
attr unit  bps
scalar BasicTopology.peer[7].wlan[0].radio 	bitrate:max 	-nan
attr interpolationmode  sample-hold
attr title  "tx bitrate, max"
attr unit  bps
scalar BasicTopology.peer[7].wlan[0].radio 	bitrate:timeavg 	-nan
attr interpolationmode  sample-hold
attr title  "tx bitrate, timeavg"
attr unit  bps
statistic BasicTopology.peer[7].bitTorrentApp.swarmManager 	ContentManager_PieceDownloadTime:histogram
field count 0
field mean 0
field stddev -nan
field sum 0
field sqrsum 0
field min 0
field max 0
attr title  "Swarm Piece Download Time, histogram"
bin	-INF	0
bin	-0.5	0
bin	-0.46666666666667	0
bin	-0.43333333333333	0
bin	-0.4	0
bin	-0.36666666666667	0
bin	-0.33333333333333	0
bin	-0.3	0
bin	-0.26666666666667	0
bin	-0.23333333333333	0
bin	-0.2	0
bin	-0.16666666666667	0
bin	-0.13333333333333	0
bin	-0.1	0
bin	-0.066666666666667	0
bin	-0.033333333333333	0
bin	0	0
bin	0.033333333333333	0
bin	0.066666666666667	0
bin	0.1	0
bin	0.13333333333333	0
bin	0.16666666666667	0
bin	0.2	0
bin	0.23333333333333	0
bin	0.26666666666667	0
bin	0.3	0
bin	0.33333333333333	0
bin	0.36666666666667	0
bin	0.4	0
bin	0.43333333333333	0
bin	0.46666666666667	0
bin	0.5	0
statistic BasicTopology.peer[7].bitTorrentApp.swarmManager 	ContentManager_100_percentDownloadMarkTime:histogram
field count 0
field mean 0
field stddev -nan
field sum 0
field sqrsum 0
field min 0
field max 0
attr title  "100% Download Time Ordinate, histogram"
attr unit  s
bin	-INF	0
bin	-0.5	0
bin	-0.46666666666667	0
bin	-0.43333333333333	0
bin	-0.4	0
bin	-0.36666666666667	0
bin	-0.33333333333333	0
bin	-0.3	0
bin	-0.26666666666667	0
bin	-0.23333333333333	0
bin	-0.2	0
bin	-0.16666666666667	0
bin	-0.13333333333333	0
bin	-0.1	0
bin	-0.066666666666667	0
bin	-0.033333333333333	0
bin	0	0
bin	0.033333333333333	0
bin	0.066666666666667	0
bin	0.1	0
bin	0.13333333333333	0
bin	0.16666666666667	0
bin	0.2	0
bin	0.23333333333333	0
bin	0.26666666666667	0
bin	0.3	0
bin	0.33333333333333	0
bin	0.36666666666667	0
bin	0.4	0
bin	0.43333333333333	0
bin	0.46666666666667	0
bin	0.5	0
statistic BasicTopology.peer[7].bitTorrentApp.swarmManager 	ContentManager_75_percentDownloadMarkTime:histogram
field count 0
field mean 0
field stddev -nan
field sum 0
field sqrsum 0
field min 0
field max 0
attr title  "75% Download Time Ordinate, histogram"
attr unit  s
bin	-INF	0
bin	-0.5	0
bin	-0.46666666666667	0
bin	-0.43333333333333	0
bin	-0.4	0
bin	-0.36666666666667	0
bin	-0.33333333333333	0
bin	-0.3	0
bin	-0.26666666666667	0
bin	-0.23333333333333	0
bin	-0.2	0
bin	-0.16666666666667	0
bin	-0.13333333333333	0
bin	-0.1	0
bin	-0.066666666666667	0
bin	-0.033333333333333	0
bin	0	0
bin	0.033333333333333	0
bin	0.066666666666667	0
bin	0.1	0
bin	0.13333333333333	0
bin	0.16666666666667	0
bin	0.2	0
bin	0.23333333333333	0
bin	0.26666666666667	0
bin	0.3	0
bin	0.33333333333333	0
bin	0.36666666666667	0
bin	0.4	0
bin	0.43333333333333	0
bin	0.46666666666667	0
bin	0.5	0
statistic BasicTopology.peer[7].bitTorrentApp.swarmManager 	ContentManager_50_percentDownloadMarkTime:histogram
field count 0
field mean 0
field stddev -nan
field sum 0
field sqrsum 0
field min 0
field max 0
attr title  "50% Download Time Ordinate, histogram"
attr unit  s
bin	-INF	0
bin	-0.5	0
bin	-0.46666666666667	0
bin	-0.43333333333333	0
bin	-0.4	0
bin	-0.36666666666667	0
bin	-0.33333333333333	0
bin	-0.3	0
bin	-0.26666666666667	0
bin	-0.23333333333333	0
bin	-0.2	0
bin	-0.16666666666667	0
bin	-0.13333333333333	0
bin	-0.1	0
bin	-0.066666666666667	0
bin	-0.033333333333333	0
bin	0	0
bin	0.033333333333333	0
bin	0.066666666666667	0
bin	0.1	0
bin	0.13333333333333	0
bin	0.16666666666667	0
bin	0.2	0
bin	0.23333333333333	0
bin	0.26666666666667	0
bin	0.3	0
bin	0.33333333333333	0
bin	0.36666666666667	0
bin	0.4	0
bin	0.43333333333333	0
bin	0.46666666666667	0
bin	0.5	0
statistic BasicTopology.peer[7].bitTorrentApp.swarmManager 	ContentManager_25_percentDownloadMarkTime:histogram
field count 0
field mean 0
field stddev -nan
field sum 0
field sqrsum 0
field min 0
field max 0
attr title  "25% Download Time Ordinate, histogram"
attr unit  s
bin	-INF	0
bin	-0.5	0
bin	-0.46666666666667	0
bin	-0.43333333333333	0
bin	-0.4	0
bin	-0.36666666666667	0
bin	-0.33333333333333	0
bin	-0.3	0
bin	-0.26666666666667	0
bin	-0.23333333333333	0
bin	-0.2	0
bin	-0.16666666666667	0
bin	-0.13333333333333	0
bin	-0.1	0
bin	-0.066666666666667	0
bin	-0.033333333333333	0
bin	0	0
bin	0.033333333333333	0
bin	0.066666666666667	0
bin	0.1	0
bin	0.13333333333333	0
bin	0.16666666666667	0
bin	0.2	0
bin	0.23333333333333	0
bin	0.26666666666667	0
bin	0.3	0
bin	0.33333333333333	0
bin	0.36666666666667	0
bin	0.4	0
bin	0.43333333333333	0
bin	0.46666666666667	0
bin	0.5	0
scalar BasicTopology.peer[7].bitTorrentApp.swarmManager 	SwarmManager_EnteredSwarm:last 	-nan
attr title  "Enter Swarm Instant, last"
scalar BasicTopology.peer[7].bitTorrentApp.bitTorrentClient.contentManager_26 	ContentManager_75_percentDownloadMarkTime:last 	-nan
attr title  "75% Download Time Ordinate, last"
attr unit  s
scalar BasicTopology.peer[7].bitTorrentApp.bitTorrentClient.contentManager_26 	ContentManager_50_percentDownloadMarkTime:last 	-nan
attr title  "50% Download Time Ordinate, last"
attr unit  s
scalar BasicTopology.peer[7].bitTorrentApp.bitTorrentClient.contentManager_26 	ContentManager_25_percentDownloadMarkTime:last 	-nan
attr title  "25% Download Time Ordinate, last"
attr unit  s
statistic BasicTopology.peer[7].bitTorrentApp.bitTorrentClient 	"Piece processing time histogram"
field count 2936
field mean 0.0073639305177112
field stddev 0.0099766190078884
field sum 21.6205
field sqrsum 0.451341
field min 0
field max 0.102482
bin	-INF	0
bin	0	936
bin	0.000909091	352
bin	0.001818182	155
bin	0.002727273	108
bin	0.003636364	126
bin	0.004545455	111
bin	0.005454546	58
bin	0.006363637	55
bin	0.007272728	27
bin	0.008181819	55
bin	0.00909091	55
bin	0.010000001	85
bin	0.010909092	81
bin	0.011818183	66
bin	0.012727274	70
bin	0.013636365	71
bin	0.014545456	54
bin	0.015454547	41
bin	0.016363638	49
bin	0.017272729	44
bin	0.01818182	40
bin	0.019090911	33
bin	0.020000002	31
bin	0.020909093	22
[...]
field sum 0
field sqrsum 0
field min 0
field max 0
attr title  "Swarm Piece Download Time, histogram"
bin	-INF	0
bin	-0.5	0
bin	-0.46666666666667	0
bin	-0.43333333333333	0
bin	-0.4	0
bin	-0.36666666666667	0
bin	-0.33333333333333	0
bin	-0.3	0
bin	-0.26666666666667	0
bin	-0.23333333333333	0
bin	-0.2	0
bin	-0.16666666666667	0
bin	-0.13333333333333	0
bin	-0.1	0
bin	-0.066666666666667	0
bin	-0.033333333333333	0
bin	0	0
bin	0.033333333333333	0
bin	0.066666666666667	0
bin	0.1	0
bin	0.13333333333333	0
bin	0.16666666666667	0
bin	0.2	0
bin	0.23333333333333	0
bin	0.26666666666667	0
bin	0.3	0
bin	0.33333333333333	0
bin	0.36666666666667	0
bin	0.4	0
bin	0.43333333333333	0
bin	0.46666666666667	0
bin	0.5	0
statistic BasicTopology.peer[23].bitTorrentApp.swarmManager 	ContentManager_100_percentDownloadMarkTime:histogram
field count 0
field mean 0
field stddev -nan
field sum 0
field sqrsum 0
field min 0
field max 0
attr title  "100% Download Time Ordinate, histogram"
attr unit  s
bin	-INF	0
bin	-0.5	0
bin	-0.46666666666667	0
bin	-0.43333333333333	0
bin	-0.4	0
bin	-0.36666666666667	0
bin	-0.33333333333333	0
bin	-0.3	0
bin	-0.26666666666667	0
bin	-0.23333333333333	0
bin	-0.2	0
bin	-0.16666666666667	0
bin	-0.13333333333333	0
bin	-0.1	0
bin	-0.066666666666667	0
bin	-0.033333333333333	0
bin	0	0
bin	0.033333333333333	0
bin	0.066666666666667	0
bin	0.1	0
bin	0.13333333333333	0
bin	0.16666666666667	0
bin	0.2	0
bin	0.23333333333333	0
bin	0.26666666666667	0
bin	0.3	0
bin	0.33333333333333	0
bin	0.36666666666667	0
bin	0.4	0
bin	0.43333333333333	0
bin	0.46666666666667	0
bin	0.5	0
statistic BasicTopology.peer[23].bitTorrentApp.swarmManager 	ContentManager_75_percentDownloadMarkTime:histogram
field count 0
field mean 0
field stddev -nan
field sum 0
field sqrsum 0
field min 0
field max 0
attr title  "75% Download Time Ordinate, histogram"
attr unit  s
bin	-INF	0
bin	-0.5	0
bin	-0.46666666666667	0
bin	-0.43333333333333	0
bin	-0.4	0
bin	-0.36666666666667	0
bin	-0.33333333333333	0
bin	-0.3	0
bin	-0.26666666666667	0
bin	-0.23333333333333	0
bin	-0.2	0
bin	-0.16666666666667	0
bin	-0.13333333333333	0
bin	-0.1	0
bin	-0.066666666666667	0
bin	-0.033333333333333	0
bin	0	0
bin	0.033333333333333	0
bin	0.066666666666667	0
bin	0.1	0
bin	0.13333333333333	0
bin	0.16666666666667	0
bin	0.2	0
bin	0.23333333333333	0
bin	0.26666666666667	0
bin	0.3	0
bin	0.33333333333333	0
bin	0.36666666666667	0
bin	0.4	0
bin	0.43333333333333	0
bin	0.46666666666667	0
bin	0.5	0
statistic BasicTopology.peer[23].bitTorrentApp.swarmManager 	ContentManager_50_percentDownloadMarkTime:histogram
field count 0
field mean 0
field stddev -nan
field sum 0
field sqrsum 0
field min 0
field max 0
attr title  "50% Download Time Ordinate, histogram"
attr unit  s
bin	-INF	0
bin	-0.5	0
bin	-0.46666666666667	0
bin	-0.43333333333333	0
bin	-0.4	0
bin	-0.36666666666667	0
bin	-0.33333333333333	0
bin	-0.3	0
bin	-0.26666666666667	0
bin	-0.23333333333333	0
bin	-0.2	0
bin	-0.16666666666667	0
bin	-0.13333333333333	0
bin	-0.1	0
bin	-0.066666666666667	0
bin	-0.033333333333333	0
bin	0	0
bin	0.033333333333333	0
bin	0.066666666666667	0
bin	0.1	0
bin	0.13333333333333	0
bin	0.16666666666667	0
bin	0.2	0
bin	0.23333333333333	0
bin	0.26666666666667	0
bin	0.3	0
bin	0.33333333333333	0
bin	0.36666666666667	0
bin	0.4	0
bin	0.43333333333333	0
bin	0.46666666666667	0
bin	0.5	0
statistic BasicTopology.peer[23].bitTorrentApp.swarmManager 	ContentManager_25_percentDownloadMarkTime:histogram
field count 0
field mean 0
field stddev -nan
field sum 0
field sqrsum 0
field min 0
field max 0
attr title  "25% Download Time Ordinate, histogram"
attr unit  s
bin	-INF	0
bin	-0.5	0
bin	-0.46666666666667	0
bin	-0.43333333333333	0
bin	-0.4	0
bin	-0.36666666666667	0
bin	-0.33333333333333	0
bin	-0.3	0
bin	-0.26666666666667	0
bin	-0.23333333333333	0
bin	-0.2	0
bin	-0.16666666666667	0
bin	-0.13333333333333	0
bin	-0.1	0
bin	-0.066666666666667	0
bin	-0.033333333333333	0
bin	0	0
bin	0.033333333333333	0
bin	0.066666666666667	0
bin	0.1	0
bin	0.13333333333333	0
bin	0.16666666666667	0
bin	0.2	0
bin	0.23333333333333	0
bin	0.26666666666667	0
bin	0.3	0
bin	0.33333333333333	0
bin	0.36666666666667	0
bin	0.4	0
bin	0.43333333333333	0
bin	0.46666666666667	0
bin	0.5	0
scalar BasicTopology.peer[23].bitTorrentApp.swarmManager 	SwarmManager_EnteredSwarm:last 	-nan
attr title  "Enter Swarm Instant, last"
scalar BasicTopology.peer[23].bitTorrentApp.bitTorrentClient.contentManager_26 	ContentManager_75_percentDownloadMarkTime:last 	-nan
attr title  "75% Download Time Ordinate, last"
attr unit  s
scalar BasicTopology.peer[23].bitTorrentApp.bitTorrentClient.contentManager_26 	ContentManager_50_percentDownloadMarkTime:last 	-nan
attr title  "50% Download Time Ordinate, last"
attr unit  s
scalar BasicTopology.peer[23].bitTorrentApp.bitTorrentClient.contentManager_26 	ContentManager_25_percentDownloadMarkTime:last 	-nan
attr title  "25% Download Time Ordinate, last"
attr unit  s
statistic BasicTopology.peer[23].bitTorrentApp.bitTorrentClient 	"Piece processing time histogram"
field count 2936
field mean 0.0073639305177112
field stddev 0.0099766190078884
field sum 21.6205
field sqrsum 0.451341
field min 0
field max 0.102482
bin	-INF	0
bin	0	936
bin	0.000909091	352
bin	0.001818182	155
bin	0.002727273	108
bin	0.003636364	126
bin	0.004545455	111
bin	0.005454546	58
bin	0.006363637	55
bin	0.007272728	27
bin	0.008181819	55
bin	0.00909091	55
bin	0.010000001	85
bin	0.010909092	81
bin	0.011818183	66
bin	0.012727274	70
bin	0.013636365	71
bin	0.014545456	54
bin	0.015454547	41
bin	0.016363638	49
bin	0.017272729	44
bin	0.01818182	40
bin	0.019090911	33
bin	0.020000002	31
bin	0.020909093	22
bin	0.021818184	27
bin	0.022727275	16
bin	0.023636366	16
bin	0.024545457	14
bin	0.025454548	15
bin	0.026363639	9
bin	0.02727273	11
bin	0.028181821	11
bin	0.029090912	5
bin	0.030000003	9
bin	0.030909094	9
bin	0.031818185	3
bin	0.032727276	5
bin	0.033636367	4
bin	0.034545458	4
bin	0.035454549	4
bin	0.03636364	1
bin	0.037272731	2
bin	0.038181822	4
bin	0.039090913	3
bin	0.040000004	2
bin	0.040909095	3
bin	0.041818186	3
bin	0.042727277	3
bin	0.043636368	0
bin	0.044545459	0
bin	0.04545455	2
bin	0.046363641	1
bin	0.047272732	0
bin	0.048181823	1
bin	0.049090914	2
bin	0.05	22
scalar BasicTopology.peer[24].networkLayer.arp 	failedResolution:count 	0
attr title  "ARP failed resolutions, count"
scalar BasicTopology.peer[24].networkLayer.arp 	initiatedResolution:count 	4
attr title  "ARP initiated resolutions, count"
scalar BasicTopology.peer[24].networkLayer.arp 	sentReplies:count 	0
attr title  "ARP replies sent, count"
scalar BasicTopology.peer[24].networkLayer.arp 	sentReq:count 	4
attr title  "ARP request sent, count"
scalar BasicTopology.peer[24].wlan[0].mgmt 	dropPkByQueue:count 	194
attr interpolationmode  none
attr source  dropPkByQueue
attr title  "packets dropped by queue, count"
scalar BasicTopology.peer[24].wlan[0].mgmt 	dropPkByQueue:sum(packetBytes) 	25361
attr interpolationmode  none
attr source  dropPkByQueue
attr title  "packets dropped by queue, sum(packetBytes)"
scalar BasicTopology.peer[24].wlan[0].mgmt 	dataQueueLen:max 	10
attr interpolationmode  sample-hold
attr title  "data queue length, max"
scalar BasicTopology.peer[24].wlan[0].mgmt 	dataQueueLen:timeavg 	0.10156424358193
attr interpolationmode  sample-hold
attr title  "data queue length, timeavg"
scalar BasicTopology.peer[24].wlan[0].mac 	"number of received packets" 	18364
scalar BasicTopology.peer[24].wlan[0].mac 	"number of collisions" 	24208
scalar BasicTopology.peer[24].wlan[0].mac 	"number of internal collisions" 	0
scalar BasicTopology.peer[24].wlan[0].mac 	"number of retry for AC 0" 	15535
scalar BasicTopology.peer[24].wlan[0].mac 	"sent and receive bites" 	39274776
scalar BasicTopology.peer[24].wlan[0].mac 	"sent packet within AC 0" 	18270
scalar BasicTopology.peer[24].wlan[0].mac 	"sent in TXOP " 	0
scalar BasicTopology.peer[24].wlan[0].mac 	"sentWithoutRetry AC 0" 	11190
scalar BasicTopology.peer[24].wlan[0].mac 	"numGivenUp AC 0" 	283
scalar BasicTopology.peer[24].wlan[0].mac 	"numDropped AC 0" 	0
scalar BasicTopology.peer[24].wlan[0].radio 	lossRate:min 	0
attr interpolationmode  backward-sample-hold
attr title  "packet loss rate, min"
scalar BasicTopology.peer[24].wlan[0].radio 	lossRate:max 	0.4
attr interpolationmode  backward-sample-hold
attr title  "packet loss rate, max"
scalar BasicTopology.peer[24].wlan[0].radio 	lossRate:timeavg 	0.030435079562056
attr interpolationmode  backward-sample-hold
attr title  "packet loss rate, timeavg"
scalar BasicTopology.peer[24].wlan[0].radio 	radioState:count 	2760362
attr interpolationmode  sample-hold
attr title  "radio state (enum), count"
statistic BasicTopology.peer[24].wlan[0].radio 	channelNo:histogram
field count 0
field mean 0
field stddev -nan
field sum 0
field sqrsum 0
field min 0
field max 0
attr interpolationmode  sample-hold
attr title  "channel no, histogram"
bin	-INF	0
bin	-0.5	0
bin	-0.46666666666667	0
bin	-0.43333333333333	0
bin	-0.4	0
bin	-0.36666666666667	0
bin	-0.33333333333333	0
bin	-0.3	0
bin	-0.26666666666667	0
bin	-0.23333333333333	0
bin	-0.2	0
bin	-0.16666666666667	0
bin	-0.13333333333333	0
bin	-0.1	0
bin	-0.066666666666667	0
bin	-0.033333333333333	0
bin	0	0
bin	0.033333333333333	0
bin	0.066666666666667	0
bin	0.1	0
bin	0.13333333333333	0
bin	0.16666666666667	0
bin	0.2	0
bin	0.23333333333333	0
bin	0.26666666666667	0
bin	0.3	0
bin	0.33333333333333	0
bin	0.36666666666667	0
bin	0.4	0
bin	0.43333333333333	0
bin	0.46666666666667	0
bin	0.5	0
scalar BasicTopology.peer[24].wlan[0].radio 	bitrate:min 	-nan
attr interpolationmode  sample-hold
attr title  "tx bitrate, min"
attr unit  bps
scalar BasicTopology.peer[24].wlan[0].radio 	bitrate:max 	-nan
attr interpolationmode  sample-hold
attr title  "tx bitrate, max"
attr unit  bps
scalar BasicTopology.peer[24].wlan[0].radio 	bitrate:timeavg 	-nan
attr interpolationmode  sample-hold
attr title  "tx bitrate, timeavg"
attr unit  bps
statistic BasicTopology.peer[24].bitTorrentApp.swarmManager 	ContentManager_PieceDownloadTime:histogram
field count 0
field mean 0
field stddev -nan
field sum 0
field sqrsum 0
field min 0
field max 0
attr title  "Swarm Piece Download Time, histogram"
bin	-INF	0
bin	-0.5	0
bin	-0.46666666666667	0
bin	-0.43333333333333	0
bin	-0.4	0
bin	-0.36666666666667	0
bin	-0.33333333333333	0
bin	-0.3	0
bin	-0.26666666666667	0
bin	-0.23333333333333	0
bin	-0.2	0
bin	-0.16666666666667	0
bin	-0.13333333333333	0
bin	-0.1	0
bin	-0.066666666666667	0
bin	-0.033333333333333	0
bin	0	0
bin	0.033333333333333	0
bin	0.066666666666667	0
bin	0.1	0
bin	0.13333333333333	0
bin	0.16666666666667	0
bin	0.2	0
bin	0.23333333333333	0
bin	0.26666666666667	0
bin	0.3	0
bin	0.33333333333333	0
bin	0.36666666666667	0
bin	0.4	0
bin	0.43333333333333	0
bin	0.46666666666667	0
bin	0.5	0
statistic BasicTopology.peer[24].bitTorrentApp.swarmManager 	ContentManager_100_percentDownloadMarkTime:histogram
field count 0
field mean 0
field stddev -nan
field sum 0
field sqrsum 0
field min 0
field max 0
attr title  "100% Download Time Ordinate, histogram"
attr unit  s
bin	-INF	0
bin	-0.5	0
bin	-0.46666666666667	0
bin	-0.43333333333333	0
bin	-0.4	0
bin	-0.36666666666667	0
bin	-0.33333333333333	0
bin	-0.3	0
bin	-0.26666666666667	0
bin	-0.23333333333333	0
bin	-0.2	0
bin	-0.16666666666667	0
bin	-0.13333333333333	0
bin	-0.1	0
bin	-0.066666666666667	0
bin	-0.033333333333333	0
bin	0	0
bin	0.033333333333333	0
bin	0.066666666666667	0
bin	0.1	0
bin	0.13333333333333	0
bin	0.16666666666667	0
bin	0.2	0
bin	0.23333333333333	0
bin	0.26666666666667	0
bin	0.3	0
bin	0.33333333333333	0
bin	0.36666666666667	0
bin	0.4	0
bin	0.43333333333333	0
bin	0.46666666666667	0
bin	0.5	0
statistic BasicTopology.peer[24].bitTorrentApp.swarmManager 	ContentManager_75_percentDownloadMarkTime:histogram
field count 0
field mean 0
field stddev -nan
field sum 0
field sqrsum 0
field min 0
field max 0
attr title  "75% Download Time Ordinate, histogram"
attr unit  s
bin	-INF	0
bin	-0.5	0
bin	-0.46666666666667	0
bin	-0.43333333333333	0
bin	-0.4	0
bin	-0.36666666666667	0
bin	-0.33333333333333	0
bin	-0.3	0
bin	-0.26666666666667	0
bin	-0.23333333333333	0
bin	-0.2	0
bin	-0.16666666666667	0
bin	-0.13333333333333	0
bin	-0.1	0
bin	-0.066666666666667	0
bin	-0.033333333333333	0
bin	0	0
bin	0.033333333333333	0
bin	0.066666666666667	0
bin	0.1	0
bin	0.13333333333333	0
bin	0.16666666666667	0
bin	0.2	0
bin	0.23333333333333	0
bin	0.26666666666667	0
bin	0.3	0
bin	0.33333333333333	0
bin	0.36666666666667	0
bin	0.4	0
bin	0.43333333333333	0
bin	0.46666666666667	0
bin	0.5	0
statistic BasicTopology.peer[24].bitTorrentApp.swarmManager 	ContentManager_50_percentDownloadMarkTime:histogram
field count 0
field mean 0
field stddev -nan
field sum 0
field sqrsum 0
field min 0
field max 0
attr title  "50% Download Time Ordinate, histogram"
attr unit  s
bin	-INF	0
bin	-0.5	0
bin	-0.46666666666667	0
bin	-0.43333333333333	0
bin	-0.4	0
bin	-0.36666666666667	0
bin	-0.33333333333333	0
bin	-0.3	0
bin	-0.26666666666667	0
bin	-0.23333333333333	0
bin	-0.2	0
bin	-0.16666666666667	0
bin	-0.13333333333333	0
bin	-0.1	0
bin	-0.066666666666667	0
bin	-0.033333333333333	0
bin	0	0
bin	0.033333333333333	0
bin	0.066666666666667	0
bin	0.1	0
bin	0.13333333333333	0
bin	0.16666666666667	0
bin	0.2	0
bin	0.23333333333333	0
bin	0.26666666666667	0
bin	0.3	0
bin	0.33333333333333	0
bin	0.36666666666667	0
bin	0.4	0
bin	0.43333333333333	0
bin	0.46666666666667	0
bin	0.5	0
statistic BasicTopology.peer[24].bitTorrentApp.swarmManager 	ContentManager_25_percentDownloadMarkTime:histogram
field count 0
field mean 0
field stddev -nan
field sum 0
field sqrsum 0
field min 0
field max 0
attr title  "25% Download Time Ordinate, histogram"
attr unit  s
bin	-INF	0
bin	-0.5	0
bin	-0.46666666666667	0
bin	-0.43333333333333	0
bin	-0.4	0
bin	-0.36666666666667	0
bin	-0.33333333333333	0
bin	-0.3	0
bin	-0.26666666666667	0
bin	-0.23333333333333	0
bin	-0.2	0
bin	-0.16666666666667	0
bin	-0.13333333333333	0
bin	-0.1	0
bin	-0.066666666666667	0
bin	-0.033333333333333	0
bin	0	0
bin	0.033333333333333	0
bin	0.066666666666667	0
bin	0.1	0
bin	0.13333333333333	0
bin	0.16666666666667	0
bin	0.2	0
bin	0.23333333333333	0
bin	0.26666666666667	0
bin	0.3	0
bin	0.33333333333333	0
bin	0.36666666666667	0
bin	0.4	0
bin	0.43333333333333	0
bin	0.46666666666667	0
bin	0.5	0
scalar BasicTopology.peer[24].bitTorrentApp.swarmManager 	SwarmManager_EnteredSwarm:last 	-nan
attr title  "Enter Swarm Instant, last"
scalar BasicTopology.peer[24].bitTorrentApp.bitTorrentClient.contentManager_26 	ContentManager_75_percentDownloadMarkTime:last 	-nan
attr title  "75% Download Time Ordinate, last"
attr unit  s
scalar BasicTopology.peer[24].bitTorrentApp.bitTorrentClient.contentManager_26 	ContentManager_50_percentDownloadMarkTime:last 	-nan
attr title  "50% Download Time Ordinate, last"
attr unit  s
scalar BasicTopology.peer[24].bitTorrentApp.bitTorrentClient.contentManager_26 	ContentManager_25_percentDownloadMarkTime:last 	-nan
attr title  "25% Download Time Ordinate, last"
attr unit  s
statistic BasicTopology.peer[24].bitTorrentApp.bitTorrentClient 	"Piece processing time histogram"
field count 2936
field mean 0.0073639305177112
field stddev 0.0099766190078884
field sum 21.6205
field sqrsum 0.451341
field min 0
field max 0.102482
bin	-INF	0
bin	0	936
bin	0.000909091	352
bin	0.001818182	155
bin	0.002727273	108
bin	0.003636364	126
bin	0.004545455	111
bin	0.005454546	58
bin	0.006363637	55
bin	0.007272728	27
bin	0.008181819	55
bin	0.00909091	55
bin	0.010000001	85
bin	0.010909092	81
bin	0.011818183	66
bin	0.012727274	70
bin	0.013636365	71
bin	0.014545456	54
bin	0.015454547	41
bin	0.016363638	49
bin	0.017272729	44
bin	0.01818182	40
bin	0.019090911	33
bin	0.020000002	31
bin	0.020909093	22
bin	0.021818184	27
bin	0.022727275	16
bin	0.023636366	16
bin	0.024545457	14
bin	0.025454548	15
bin	0.026363639	9
bin	0.02727273	11
bin	0.028181821	11
bin	0.029090912	5
bin	0.030000003	9
bin	0.030909094	9
bin	0.031818185	3
bin	0.032727276	5
bin	0.033636367	4
bin	0.034545458	4
bin	0.035454549	4
bin	0.03636364	1
bin	0.037272731	2
bin	0.038181822	4
bin	0.039090913	3
bin	0.040000004	2
bin	0.040909095	3
bin	0.041818186	3
bin	0.042727277	3
bin	0.043636368	0
bin	0.044545459	0
bin	0.04545455	2
bin	0.046363641	1
bin	0.047272732	0
bin	0.048181823	1
bin	0.049090914	2
bin	0.05	22
scalar BasicTopology.tracker.networkLayer.arp 	failedResolution:count 	0
attr title  "ARP failed resolutions, count"
scalar BasicTopology.tracker.networkLayer.arp 	initiatedResolution:count 	0
attr title  "ARP initiated resolutions, count"
scalar BasicTopology.tracker.networkLayer.arp 	sentReplies:count 	0
attr title  "ARP replies sent, count"
scalar BasicTopology.tracker.networkLayer.arp 	sentReq:count 	0
attr title  "ARP request sent, count"
scalar BasicTopology.tracker.wlan[0].mgmt 	dropPkByQueue:count 	0
attr interpolationmode  none
attr source  dropPkByQueue
attr title  "packets dropped by queue, count"
scalar BasicTopology.tracker.wlan[0].mgmt 	dropPkByQueue:sum(packetBytes) 	0
attr interpolationmode  none
attr source  dropPkByQueue
attr title  "packets dropped by queue, sum(packetBytes)"
scalar BasicTopology.tracker.wlan[0].mgmt 	dataQueueLen:max 	-nan
attr interpolationmode  sample-hold
attr title  "data queue length, max"
scalar BasicTopology.tracker.wlan[0].mgmt 	dataQueueLen:timeavg 	-nan
attr interpolationmode  sample-hold
attr title  "data queue length, timeavg"
scalar BasicTopology.tracker.wlan[0].mac 	"number of received packets" 	0
scalar BasicTopology.tracker.wlan[0].mac 	"number of collisions" 	0
scalar BasicTopology.tracker.wlan[0].mac 	"number of internal collisions" 	0
scalar BasicTopology.tracker.wlan[0].mac 	"number of retry for AC 0" 	0
scalar BasicTopology.tracker.wlan[0].mac 	"sent and receive bites" 	0
scalar BasicTopology.tracker.wlan[0].mac 	"sent packet within AC 0" 	0
scalar BasicTopology.tracker.wlan[0].mac 	"sent in TXOP " 	0
scalar BasicTopology.tracker.wlan[0].mac 	"sentWithoutRetry AC 0" 	0
scalar BasicTopology.tracker.wlan[0].mac 	"numGivenUp AC 0" 	0
scalar BasicTopology.tracker.wlan[0].mac 	"numDropped AC 0" 	0
scalar BasicTopology.tracker.wlan[0].radio 	lossRate:min 	-nan
attr interpolationmode  backward-sample-hold
attr title  "packet loss rate, min"
scalar BasicTopology.tracker.wlan[0].radio 	lossRate:max 	-nan
attr interpolationmode  backward-sample-hold
attr title  "packet loss rate, max"
scalar BasicTopology.tracker.wlan[0].radio 	lossRate:timeavg 	-nan
attr interpolationmode  backward-sample-hold
attr title  "packet loss rate, timeavg"
scalar BasicTopology.tracker.wlan[0].radio 	radioState:count 	0
attr interpolationmode  sample-hold
attr title  "radio state (enum), count"
statistic BasicTopology.tracker.wlan[0].radio 	channelNo:histogram
field count 0
field mean 0
field stddev -nan
field sum 0
field sqrsum 0
field min 0
field max 0
attr interpolationmode  sample-hold
attr title  "channel no, histogram"
bin	-INF	0
bin	-0.5	0
bin	-0.46666666666667	0
bin	-0.43333333333333	0
bin	-0.4	0
bin	-0.36666666666667	0
bin	-0.33333333333333	0
bin	-0.3	0
bin	-0.26666666666667	0
bin	-0.23333333333333	0
bin	-0.2	0
bin	-0.16666666666667	0
bin	-0.13333333333333	0
bin	-0.1	0
bin	-0.066666666666667	0
bin	-0.033333333333333	0
bin	0	0
bin	0.033333333333333	0
bin	0.066666666666667	0
bin	0.1	0
bin	0.13333333333333	0
bin	0.16666666666667	0
bin	0.2	0
bin	0.23333333333333	0
bin	0.26666666666667	0
bin	0.3	0
bin	0.33333333333333	0
bin	0.36666666666667	0
bin	0.4	0
bin	0.43333333333333	0
bin	0.46666666666667	0
bin	0.5	0
scalar BasicTopology.tracker.wlan[0].radio 	bitrate:min 	-nan
attr interpolationmode  sample-hold
attr title  "tx bitrate, min"
attr unit  bps
scalar BasicTopology.tracker.wlan[0].radio 	bitrate:max 	-nan
attr interpolationmode  sample-hold
attr title  "tx bitrate, max"
attr unit  bps
scalar BasicTopology.tracker.wlan[0].radio 	bitrate:timeavg 	-nan
attr interpolationmode  sample-hold
attr title  "tx bitrate, timeavg"
attr unit  bps
scalar BasicTopology 	PieceSent:count 	2397
attr source  BitTorrentClient_PieceSent
attr title  "Sum of Pieces sent, count"
