version 2
run Test-4-20200424-14:06:54-6534
attr configname Test
attr datetime 20200424-14:06:54
attr experiment "\"Simulation Test\""
attr inifile BasicConfig.ini
attr iterationvars ""
attr iterationvars2 $repetition=4
attr measurement "\"Peers: $peers, Rate: $rate\""
attr network BasicTopology
attr processid 6534
attr repetition 4
attr replication #4
attr resultdir results
attr runnumber 4
attr seedset 4

scalar BasicTopology.peer[0].networkLayer.arp 	failedResolution:count 	0
attr title  "ARP failed resolutions, count"
scalar BasicTopology.peer[0].networkLayer.arp 	initiatedResolution:count 	5
attr title  "ARP initiated resolutions, count"
scalar BasicTopology.peer[0].networkLayer.arp 	sentReplies:count 	0
attr title  "ARP replies sent, count"
scalar BasicTopology.peer[0].networkLayer.arp 	sentReq:count 	5
attr title  "ARP request sent, count"
scalar BasicTopology.peer[0].wlan[0].mgmt 	dropPkByQueue:count 	248
attr interpolationmode  none
attr source  dropPkByQueue
attr title  "packets dropped by queue, count"
scalar BasicTopology.peer[0].wlan[0].mgmt 	dropPkByQueue:sum(packetBytes) 	145229
attr interpolationmode  none
attr source  dropPkByQueue
attr title  "packets dropped by queue, sum(packetBytes)"
scalar BasicTopology.peer[0].wlan[0].mgmt 	dataQueueLen:max 	10
attr interpolationmode  sample-hold
attr title  "data queue length, max"
scalar BasicTopology.peer[0].wlan[0].mgmt 	dataQueueLen:timeavg 	0.16730078701784
attr interpolationmode  sample-hold
attr title  "data queue length, timeavg"
scalar BasicTopology.peer[0].wlan[0].mac 	"number of received packets" 	19516
scalar BasicTopology.peer[0].wlan[0].mac 	"number of collisions" 	4427
scalar BasicTopology.peer[0].wlan[0].mac 	"number of internal collisions" 	0
scalar BasicTopology.peer[0].wlan[0].mac 	"number of retry for AC 0" 	22012
scalar BasicTopology.peer[0].wlan[0].mac 	"sent and receive bites" 	92140032
scalar BasicTopology.peer[0].wlan[0].mac 	"sent packet within AC 0" 	20649
scalar BasicTopology.peer[0].wlan[0].mac 	"sent in TXOP " 	0
scalar BasicTopology.peer[0].wlan[0].mac 	"sentWithoutRetry AC 0" 	11568
scalar BasicTopology.peer[0].wlan[0].mac 	"numGivenUp AC 0" 	382
scalar BasicTopology.peer[0].wlan[0].mac 	"numDropped AC 0" 	0
scalar BasicTopology.peer[0].wlan[0].radio 	lossRate:min 	0
attr interpolationmode  backward-sample-hold
attr title  "packet loss rate, min"
scalar BasicTopology.peer[0].wlan[0].radio 	lossRate:max 	0.14
attr interpolationmode  backward-sample-hold
attr title  "packet loss rate, max"
scalar BasicTopology.peer[0].wlan[0].radio 	lossRate:timeavg 	0.004466251610983
attr interpolationmode  backward-sample-hold
attr title  "packet loss rate, timeavg"
scalar BasicTopology.peer[0].wlan[0].radio 	radioState:count 	1665306
attr interpolationmode  sample-hold
attr title  "radio state (enum), count"
statistic BasicTopology.peer[0].wlan[0].radio 	channelNo:histogram
field count 0
field mean 0
field stddev -nan
field sum 0
field sqrsum 0
field min 0
field max 0
attr interpolationmode  sample-hold
attr title  "channel no, histogram"
bin	-INF	0
bin	-0.5	0
bin	-0.46666666666667	0
bin	-0.43333333333333	0
bin	-0.4	0
bin	-0.36666666666667	0
bin	-0.33333333333333	0
bin	-0.3	0
bin	-0.26666666666667	0
bin	-0.23333333333333	0
bin	-0.2	0
bin	-0.16666666666667	0
bin	-0.13333333333333	0
bin	-0.1	0
bin	-0.066666666666667	0
bin	-0.033333333333333	0
bin	0	0
bin	0.033333333333333	0
bin	0.066666666666667	0
bin	0.1	0
bin	0.13333333333333	0
bin	0.16666666666667	0
bin	0.2	0
bin	0.23333333333333	0
bin	0.26666666666667	0
bin	0.3	0
bin	0.33333333333333	0
bin	0.36666666666667	0
bin	0.4	0
bin	0.43333333333333	0
bin	0.46666666666667	0
bin	0.5	0
scalar BasicTopology.peer[0].wlan[0].radio 	bitrate:min 	-nan
attr interpolationmode  sample-hold
attr title  "tx bitrate, min"
attr unit  bps
scalar BasicTopology.peer[0].wlan[0].radio 	bitrate:max 	-nan
attr interpolationmode  sample-hold
attr title  "tx bitrate, max"
attr unit  bps
scalar BasicTopology.peer[0].wlan[0].radio 	bitrate:timeavg 	-nan
attr interpolationmode  sample-hold
attr title  "tx bitrate, timeavg"
attr unit  bps
statistic BasicTopology.peer[0].bitTorrentApp.swarmManager 	ContentManager_PieceDownloadTime:histogram
field count 0
field mean 0
field stddev -nan
field sum 0
field sqrsum 0
field min 0
field max 0
attr title  "Swarm Piece Download Time, histogram"
bin	-INF	0
bin	-0.5	0
bin	-0.46666666666667	0
bin	-0.43333333333333	0
bin	-0.4	0
bin	-0.36666666666667	0
bin	-0.33333333333333	0
bin	-0.3	0
bin	-0.26666666666667	0
bin	-0.23333333333333	0
bin	-0.2	0
bin	-0.16666666666667	0
bin	-0.13333333333333	0
bin	-0.1	0
bin	-0.066666666666667	0
bin	-0.033333333333333	0
bin	0	0
bin	0.033333333333333	0
bin	0.066666666666667	0
bin	0.1	0
bin	0.13333333333333	0
bin	0.16666666666667	0
bin	0.2	0
bin	0.23333333333333	0
bin	0.26666666666667	0
bin	0.3	0
bin	0.33333333333333	0
bin	0.36666666666667	0
bin	0.4	0
bin	0.43333333333333	0
bin	0.46666666666667	0
bin	0.5	0
statistic BasicTopology.peer[0].bitTorrentApp.swarmManager 	ContentManager_100_percentDownloadMarkTime:histogram
field count 0
field mean 0
field stddev -nan
field sum 0
field sqrsum 0
field min 0
field max 0
attr title  "100% Download Time Ordinate, histogram"
attr unit  s
bin	-INF	0
bin	-0.5	0
bin	-0.46666666666667	0
bin	-0.43333333333333	0
bin	-0.4	0
bin	-0.36666666666667	0
bin	-0.33333333333333	0
bin	-0.3	0
bin	-0.26666666666667	0
bin	-0.23333333333333	0
bin	-0.2	0
bin	-0.16666666666667	0
bin	-0.13333333333333	0
bin	-0.1	0
bin	-0.066666666666667	0
bin	-0.033333333333333	0
bin	0	0
bin	0.033333333333333	0
bin	0.066666666666667	0
bin	0.1	0
bin	0.13333333333333	0
bin	0.16666666666667	0
bin	0.2	0
bin	0.23333333333333	0
bin	0.26666666666667	0
bin	0.3	0
bin	0.33333333333333	0
bin	0.36666666666667	0
bin	0.4	0
bin	0.43333333333333	0
bin	0.46666666666667	0
bin	0.5	0
statistic BasicTopology.peer[0].bitTorrentApp.swarmManager 	ContentManager_75_percentDownloadMarkTime:histogram
field count 0
field mean 0
field stddev -nan
field sum 0
field sqrsum 0
field min 0
field max 0
attr title  "75% Download Time Ordinate, histogram"
attr unit  s
bin	-INF	0
bin	-0.5	0
bin	-0.46666666666667	0
bin	-0.43333333333333	0
bin	-0.4	0
bin	-0.36666666666667	0
bin	-0.33333333333333	0
bin	-0.3	0
bin	-0.26666666666667	0
bin	-0.23333333333333	0
bin	-0.2	0
bin	-0.16666666666667	0
bin	-0.13333333333333	0
bin	-0.1	0
bin	-0.066666666666667	0
bin	-0.033333333333333	0
bin	0	0
bin	0.033333333333333	0
bin	0.066666666666667	0
bin	0.1	0
bin	0.13333333333333	0
bin	0.16666666666667	0
bin	0.2	0
bin	0.23333333333333	0
bin	0.26666666666667	0
bin	0.3	0
bin	0.33333333333333	0
bin	0.36666666666667	0
bin	0.4	0
bin	0.43333333333333	0
bin	0.46666666666667	0
bin	0.5	0
statistic BasicTopology.peer[0].bitTorrentApp.swarmManager 	ContentManager_50_percentDownloadMarkTime:histogram
field count 0
field mean 0
field stddev -nan
field sum 0
field sqrsum 0
field min 0
field max 0
attr title  "50% Download Time Ordinate, histogram"
attr unit  s
bin	-INF	0
bin	-0.5	0
bin	-0.46666666666667	0
bin	-0.43333333333333	0
bin	-0.4	0
bin	-0.36666666666667	0
bin	-0.33333333333333	0
bin	-0.3	0
bin	-0.26666666666667	0
bin	-0.23333333333333	0
bin	-0.2	0
bin	-0.16666666666667	0
bin	-0.13333333333333	0
bin	-0.1	0
bin	-0.066666666666667	0
bin	-0.033333333333333	0
bin	0	0
bin	0.033333333333333	0
bin	0.066666666666667	0
bin	0.1	0
bin	0.13333333333333	0
bin	0.16666666666667	0
bin	0.2	0
bin	0.23333333333333	0
bin	0.26666666666667	0
bin	0.3	0
bin	0.33333333333333	0
bin	0.36666666666667	0
bin	0.4	0
bin	0.43333333333333	0
bin	0.46666666666667	0
bin	0.5	0
statistic BasicTopology.peer[0].bitTorrentApp.swarmManager 	ContentManager_25_percentDownloadMarkTime:histogram
field count 0
field mean 0
field stddev -nan
field sum 0
field sqrsum 0
field min 0
field max 0
attr title  "25% Download Time Ordinate, histogram"
attr unit  s
bin	-INF	0
bin	-0.5	0
bin	-0.46666666666667	0
bin	-0.43333333333333	0
bin	-0.4	0
bin	-0.36666666666667	0
bin	-0.33333333333333	0
bin	-0.3	0
bin	-0.26666666666667	0
bin	-0.23333333333333	0
bin	-0.2	0
bin	-0.16666666666667	0
bin	-0.13333333333333	0
bin	-0.1	0
bin	-0.066666666666667	0
bin	-0.033333333333333	0
bin	0	0
bin	0.033333333333333	0
bin	0.066666666666667	0
bin	0.1	0
bin	0.13333333333333	0
bin	0.16666666666667	0
bin	0.2	0
bin	0.23333333333333	0
bin	0.26666666666667	0
bin	0.3	0
bin	0.33333333333333	0
bin	0.36666666666667	0
bin	0.4	0
bin	0.43333333333333	0
bin	0.46666666666667	0
bin	0.5	0
scalar BasicTopology.peer[0].bitTorrentApp.swarmManager 	SwarmManager_EnteredSwarm:last 	-nan
attr title  "Enter Swarm Instant, last"
scalar BasicTopology.peer[0].bitTorrentApp.bitTorrentClient.contentManager_26 	ContentManager_75_percentDownloadMarkTime:last 	-nan
attr title  "75% Download Time Ordinate, last"
attr unit  s
scalar BasicTopology.peer[0].bitTorrentApp.bitTorrentClient.contentManager_26 	ContentManager_50_percentDownloadMarkTime:last 	-nan
attr title  "50% Download Time Ordinate, last"
attr unit  s
scalar BasicTopology.peer[0].bitTorrentApp.bitTorrentClient.contentManager_26 	ContentManager_25_percentDownloadMarkTime:last 	-nan
attr title  "25% Download Time Ordinate, last"
attr unit  s
statistic BasicTopology.peer[0].bitTorrentApp.bitTorrentClient 	"Piece processing time histogram"
field count 2936
field mean 0.0073639305177112
field stddev 0.0099766190078884
field sum 21.6205
field sqrsum 0.451341
field min 0
field max 0.102482
bin	-INF	0
bin	0	936
bin	0.000909091	352
bin	0.001818182	155
bin	0.002727273	108
bin	0.003636364	126
bin	0.004545455	111
bin	0.005454546	58
bin	0.006363637	55
bin	0.007272728	27
bin	0.008181819	55
bin	0.00909091	55
bin	0.010000001	85
bin	0.010909092	81
bin	0.011818183	66
bin	0.012727274	70
bin	0.013636365	71
bin	0.014545456	54
bin	0.015454547	41
bin	0.016363638	49
bin	0.017272729	44
bin	0.01818182	40
bin	0.019090911	33
bin	0.020000002	31
bin	0.020909093	22
bin	0.021818184	27
bin	0.022727275	16
bin	0.023636366	16
bin	0.024545457	14
bin	0.025454548	15
bin	0.026363639	9
bin	0.02727273	11
bin	0.028181821	11
bin	0.029090912	5
bin	0.030000003	9
bin	0.030909094	9
bin	0.031818185	3
bin	0.032727276	5
bin	0.033636367	4
bin	0.034545458	4
bin	0.035454549	4
bin	0.03636364	1
bin	0.037272731	2
bin	0.038181822	4
bin	0.039090913	3
bin	0.040000004	2
bin	0.040909095	3
bin	0.041818186	3
bin	0.042727277	3
bin	0.043636368	0
bin	0.044545459	0
bin	0.04545455	2
bin	0.046363641	1
bin	0.047272732	0
bin	0.048181823	1
bin	0.049090914	2
bin	0.05	22
scalar BasicTopology.peer[1].networkLayer.arp 	failedResolution:count 	0
attr title  "ARP failed resolutions, count"
scalar BasicTopology.peer[1].networkLayer.arp 	initiatedResolution:count 	7
attr title  "ARP initiated resolutions, count"
scalar BasicTopology.peer[1].networkLayer.arp 	sentReplies:count 	0
attr title  "ARP replies sent, count"
scalar BasicTopology.peer[1].networkLayer.arp 	sentReq:count 	7
attr title  "ARP request sent, count"
scalar BasicTopology.peer[1].wlan[0].mgmt 	dropPkByQueue:count 	642
attr interpolationmode  none
attr source  dropPkByQueue
attr title  "packets dropped by queue, count"
scalar BasicTopology.peer[1].wlan[0].mgmt 	dropPkByQueue:sum(packetBytes) 	220720
attr interpolationmode  none
attr source  dropPkByQueue
attr title  "packets dropped by queue, sum(packetBytes)"
scalar BasicTopology.peer[1].wlan[0].mgmt 	dataQueueLen:max 	10
attr interpolationmode  sample-hold
attr title  "data queue length, max"
scalar BasicTopology.peer[1].wlan[0].mgmt 	dataQueueLen:timeavg 	0.24602179436118
attr interpolationmode  sample-hold
attr title  "data queue length, timeavg"
scalar BasicTopology.peer[1].wlan[0].mac 	"number of received packets" 	49765
scalar BasicTopology.peer[1].wlan[0].mac 	"number of collisions" 	46418
scalar BasicTopology.peer[1].wlan[0].mac 	"number of internal collisions" 	0
scalar BasicTopology.peer[1].wlan[0].mac 	"number of retry for AC 0" 	30428
scalar BasicTopology.peer[1].wlan[0].mac 	"sent and receive bites" 	143895448
scalar BasicTopology.peer[1].wlan[0].mac 	"sent packet within AC 0" 	50126
scalar BasicTopology.peer[1].wlan[0].mac 	"sent in TXOP " 	0
scalar BasicTopology.peer[1].wlan[0].mac 	"sentWithoutRetry AC 0" 	36229
scalar BasicTopology.peer[1].wlan[0].mac 	"numGivenUp AC 0" 	568
scalar BasicTopology.peer[1].wlan[0].mac 	"numDropped AC 0" 	0
scalar BasicTopology.peer[1].wlan[0].radio 	lossRate:min 	0
attr interpolationmode  backward-sample-hold
attr title  "packet loss rate, min"
scalar BasicTopology.peer[1].wlan[0].radio 	lossRate:max 	0.78
attr interpolationmode  backward-sample-hold
attr title  "packet loss rate, max"
scalar BasicTopology.peer[1].wlan[0].radio 	lossRate:timeavg 	0.043437622464205
attr interpolationmode  backward-sample-hold
attr title  "packet loss rate, timeavg"
scalar BasicTopology.peer[1].wlan[0].radio 	radioState:count 	2594506
attr interpolationmode  sample-hold
attr title  "radio state (enum), count"
statistic BasicTopology.peer[1].wlan[0].radio 	channelNo:histogram
field count 0
field mean 0
field stddev -nan
field sum 0
field sqrsum 0
field min 0
field max 0
attr interpolationmode  sample-hold
attr title  "channel no, histogram"
bin	-INF	0
bin	-0.5	0
bin	-0.46666666666667	0
bin	-0.43333333333333	0
bin	-0.4	0
bin	-0.36666666666667	0
bin	-0.33333333333333	0
bin	-0.3	0
bin	-0.26666666666667	0
bin	-0.23333333333333	0
bin	-0.2	0
bin	-0.16666666666667	0
bin	-0.13333333333333	0
bin	-0.1	0
bin	-0.066666666666667	0
bin	-0.033333333333333	0
bin	0	0
bin	0.033333333333333	0
bin	0.066666666666667	0
bin	0.1	0
bin	0.13333333333333	0
bin	0.16666666666667	0
bin	0.2	0
bin	0.23333333333333	0
bin	0.26666666666667	0
bin	0.3	0
bin	0.33333333333333	0
bin	0.36666666666667	0
bin	0.4	0
bin	0.43333333333333	0
bin	0.46666666666667	0
bin	0.5	0
scalar BasicTopology.peer[1].wlan[0].radio 	bitrate:min 	-nan
attr interpolationmode  sample-hold
attr title  "tx bitrate, min"
attr unit  bps
scalar BasicTopology.peer[1].wlan[0].radio 	bitrate:max 	-nan
attr interpolationmode  sample-hold
attr title  "tx bitrate, max"
attr unit  bps
scalar BasicTopology.peer[1].wlan[0].radio 	bitrate:timeavg 	-nan
attr interpolationmode  sample-hold
attr title  "tx bitrate, timeavg"
attr unit  bps
statistic BasicTopology.peer[1].bitTorrentApp.swarmManager 	ContentManager_PieceDownloadTime:histogram
field count 0
field mean 0
field stddev -nan
field sum 0
field sqrsum 0
field min 0
field max 0
attr title  "Swarm Piece Download Time, histogram"
bin	-INF	0
bin	-0.5	0
bin	-0.46666666666667	0
bin	-0.43333333333333	0
bin	-0.4	0
bin	-0.36666666666667	0
bin	-0.33333333333333	0
bin	-0.3	0
bin	-0.26666666666667	0
bin	-0.23333333333333	0
bin	-0.2	0
bin	-0.16666666666667	0
bin	-0.13333333333333	0
bin	-0.1	0
bin	-0.066666666666667	0
bin	-0.033333333333333	0
bin	0	0
bin	0.033333333333333	0
bin	0.066666666666667	0
bin	0.1	0
bin	0.13333333333333	0
bin	0.16666666666667	0
bin	0.2	0
bin	0.23333333333333	0
bin	0.26666666666667	0
bin	0.3	0
bin	0.33333333333333	0
bin	0.36666666666667	0
bin	0.4	0
bin	0.43333333333333	0
bin	0.46666666666667	0
bin	0.5	0
statistic BasicTopology.peer[1].bitTorrentApp.swarmManager 	ContentManager_100_percentDownloadMarkTime:histogram
field count 0
field mean 0
field stddev -nan
field sum 0
field sqrsum 0
field min 0
field max 0
attr title  "100% Download Time Ordinate, histogram"
attr unit  s
bin	-INF	0
bin	-0.5	0
bin	-0.46666666666667	0
bin	-0.43333333333333	0
bin	-0.4	0
bin	-0.36666666666667	0
bin	-0.33333333333333	0
bin	-0.3	0
bin	-0.26666666666667	0
bin	-0.23333333333333	0
bin	-0.2	0
bin	-0.16666666666667	0
bin	-0.13333333333333	0
bin	-0.1	0
bin	-0.066666666666667	0
bin	-0.033333333333333	0
bin	0	0
bin	0.033333333333333	0
bin	0.066666666666667	0
bin	0.1	0
bin	0.13333333333333	0
bin	0.16666666666667	0
bin	0.2	0
bin	0.23333333333333	0
bin	0.26666666666667	0
bin	0.3	0
bin	0.33333333333333	0
bin	0.36666666666667	0
bin	0.4	0
bin	0.43333333333333	0
bin	0.46666666666667	0
bin	0.5	0
statistic BasicTopology.peer[1].bitTorrentApp.swarmManager 	ContentManager_75_percentDownloadMarkTime:histogram
field count 0
field mean 0
field stddev -nan
field sum 0
field sqrsum 0
field min 0
field max 0
attr title  "75% Download Time Ordinate, histogram"
attr unit  s
bin	-INF	0
bin	-0.5	0
bin	-0.46666666666667	0
bin	-0.43333333333333	0
bin	-0.4	0
bin	-0.36666666666667	0
bin	-0.33333333333333	0
bin	-0.3	0
bin	-0.26666666666667	0
bin	-0.23333333333333	0
bin	-0.2	0
bin	-0.16666666666667	0
bin	-0.13333333333333	0
bin	-0.1	0
bin	-0.066666666666667	0
bin	-0.033333333333333	0
bin	0	0
bin	0.033333333333333	0
bin	0.066666666666667	0
bin	0.1	0
bin	0.13333333333333	0
bin	0.16666666666667	0
bin	0.2	0
bin	0.23333333333333	0
bin	0.26666666666667	0
bin	0.3	0
bin	0.33333333333333	0
bin	0.36666666666667	0
bin	0.4	0
bin	0.43333333333333	0
bin	0.46666666666667	0
bin	0.5	0
statistic BasicTopology.peer[1].bitTorrentApp.swarmManager 	ContentManager_50_percentDownloadMarkTime:histogram
field count 0
field mean 0
field stddev -nan
field sum 0
field sqrsum 0
field min 0
field max 0
attr title  "50% Download Time Ordinate, histogram"
attr unit  s
bin	-INF	0
bin	-0.5	0
bin	-0.46666666666667	0
bin	-0.43333333333333	0
bin	-0.4	0
bin	-0.36666666666667	0
bin	-0.33333333333333	0
bin	-0.3	0
bin	-0.26666666666667	0
bin	-0.23333333333333	0
bin	-0.2	0
bin	-0.16666666666667	0
bin	-0.13333333333333	0
bin	-0.1	0
bin	-0.066666666666667	0
bin	-0.033333333333333	0
bin	0	0
bin	0.033333333333333	0
bin	0.066666666666667	0
bin	0.1	0
bin	0.13333333333333	0
bin	0.16666666666667	0
bin	0.2	0
bin	0.23333333333333	0
bin	0.26666666666667	0
bin	0.3	0
bin	0.33333333333333	0
bin	0.36666666666667	0
bin	0.4	0
bin	0.43333333333333	0
bin	0.46666666666667	0
bin	0.5	0
statistic BasicTopology.peer[1].bitTorrentApp.swarmManager 	ContentManager_25_percentDownloadMarkTime:histogram
field count 0
field mean 0
field stddev -nan
field sum 0
field sqrsum 0
field min 0
field max 0
attr title  "25% Download Time Ordinate, histogram"
attr unit  s
bin	-INF	0
bin	-0.5	0
bin	-0.46666666666667	0
bin	-0.43333333333333	0
bin	-0.4	0
bin	-0.36666666666667	0
bin	-0.33333333333333	0
bin	-0.3	0
bin	-0.26666666666667	0
bin	-0.23333333333333	0
bin	-0.2	0
bin	-0.16666666666667	0
bin	-0.13333333333333	0
bin	-0.1	0
bin	-0.066666666666667	0
bin	-0.033333333333333	0
bin	0	0
bin	0.033333333333333	0
bin	0.066666666666667	0
bin	0.1	0
bin	0.13333333333333	0
bin	0.16666666666667	0
bin	0.2	0
bin	0.23333333333333	0
bin	0.26666666666667	0
bin	0.3	0
bin	0.33333333333333	0
bin	0.36666666666667	0
bin	0.4	0
bin	0.43333333333333	0
bin	0.46666666666667	0
bin	0.5	0
scalar BasicTopology.peer[1].bitTorrentApp.swarmManager 	SwarmManager_EnteredSwarm:last 	-nan
attr title  "Enter Swarm Instant, last"
scalar BasicTopology.peer[1].bitTorrentApp.bitTorrentClient.contentManager_26 	ContentManager_75_percentDownloadMarkTime:last 	-nan
attr title  "75% Download Time Ordinate, last"
attr unit  s
scalar BasicTopology.peer[1].bitTorrentApp.bitTorrentClient.contentManager_26 	ContentManager_50_percentDownloadMarkTime:last 	-nan
attr title  "50% Download Time Ordinate, last"
attr unit  s
scalar BasicTopology.peer[1].bitTorrentApp.bitTorrentClient.contentManager_26 	ContentManager_25_percentDownloadMarkTime:last 	-nan
attr title  "25% Download Time Ordinate, last"
attr unit  s
statistic BasicTopology.peer[1].bitTorrentApp.bitTorrentClient 	"Piece processing time histogram"
field count 2936
field mean 0.0073639305177112
field stddev 0.0099766190078884
field sum 21.6205
field sqrsum 0.451341
field min 0
field max 0.102482
bin	-INF	0
bin	0	936
bin	0.000909091	352
bin	0.001818182	155
bin	0.002727273	108
bin	0.003636364	126
bin	0.004545455	111
bin	0.005454546	58
bin	0.006363637	55
bin	0.007272728	27
bin	0.008181819	55
bin	0.00909091	55
bin	0.010000001	85
bin	0.010909092	81
bin	0.011818183	66
bin	0.012727274	70
bin	0.013636365	71
bin	0.014545456	54
bin	0.015454547	41
bin	0.016363638	49
bin	0.017272729	44
bin	0.01818182	40
bin	0.019090911	33
bin	0.020000002	31
bin	0.020909093	22
bin	0.021818184	27
bin	0.022727275	16
bin	0.023636366	16
bin	0.024545457	14
bin	0.025454548	15
bin	0.026363639	9
bin	0.02727273	11
bin	0.028181821	11
bin	0.029090912	5
bin	0.030000003	9
bin	0.030909094	9
bin	0.031818185	3
bin	0.032727276	5
bin	0.033636367	4
bin	0.034545458	4
bin	0.035454549	4
bin	0.03636364	1
bin	0.037272731	2
bin	0.038181822	4
bin	0.039090913	3
bin	0.040000004	2
bin	0.040909095	3
bin	0.041818186	3
bin	0.042727277	3
bin	0.043636368	0
bin	0.044545459	0
bin	0.04545455	2
bin	0.046363641	1
bin	0.047272732	0
bin	0.048181823	1
bin	0.049090914	2
bin	0.05	22
scalar BasicTopology.peer[2].networkLayer.arp 	failedResolution:count 	0
attr title  "ARP failed resolutions, count"
scalar BasicTopology.peer[2].networkLayer.arp 	initiatedResolution:count 	8
attr title  "ARP initiated resolutions, count"
scalar BasicTopology.peer[2].networkLayer.arp 	sentReplies:count 	0
attr title  "ARP replies sent, count"
scalar BasicTopology.peer[2].networkLayer.arp 	sentReq:count 	9
attr title  "ARP request sent, count"
scalar BasicTopology.peer[2].wlan[0].mgmt 	dropPkByQueue:count 	910
attr interpolationmode  none
attr source  dropPkByQueue
attr title  "packets dropped by queue, count"
scalar BasicTopology.peer[2].wlan[0].mgmt 	dropPkByQueue:sum(packetBytes) 	301191
attr interpolationmode  none
attr source  dropPkByQueue
attr title  "packets dropped by queue, sum(packetBytes)"
scalar BasicTopology.peer[2].wlan[0].mgmt 	dataQueueLen:max 	10
attr interpolationmode  sample-hold
attr title  "data queue length, max"
scalar BasicTopology.peer[2].wlan[0].mgmt 	dataQueueLen:timeavg 	0.38013021942017
attr interpolationmode  sample-hold
attr title  "data queue length, timeavg"
scalar BasicTopology.peer[2].wlan[0].mac 	"number of received packets" 	53075
scalar BasicTopology.peer[2].wlan[0].mac 	"number of collisions" 	64062
scalar BasicTopology.peer[2].wlan[0].mac 	"number of internal collisions" 	0
scalar BasicTopology.peer[2].wlan[0].mac 	"number of retry for AC 0" 	41477
scalar BasicTopology.peer[2].wlan[0].mac 	"sent and receive bites" 	141610712
scalar BasicTopology.peer[2].wlan[0].mac 	"sent packet within AC 0" 	52721
scalar BasicTopology.peer[2].wlan[0].mac 	"sent in TXOP " 	0
scalar BasicTopology.peer[2].wlan[0].mac 	"sentWithoutRetry AC 0" 	34887
scalar BasicTopology.peer[2].wlan[0].mac 	"numGivenUp AC 0" 	970
scalar BasicTopology.peer[2].wlan[0].mac 	"numDropped AC 0" 	0
scalar BasicTopology.peer[2].wlan[0].radio 	lossRate:min 	0
attr interpolationmode  backward-sample-hold
attr title  "packet loss rate, min"
scalar BasicTopology.peer[2].wlan[0].radio 	lossRate:max 	0.6
attr interpolationmode  backward-sample-hold
attr title  "packet loss rate, max"
scalar BasicTopology.peer[2].wlan[0].radio 	lossRate:timeavg 	0.055694409720474
attr interpolationmode  backward-sample-hold
attr title  "packet loss rate, timeavg"
scalar BasicTopology.peer[2].wlan[0].radio 	radioState:count 	2922684
attr interpolationmode  sample-hold
attr title  "radio state (enum), count"
statistic BasicTopology.peer[2].wlan[0].radio 	channelNo:histogram
field count 0
field mean 0
field stddev -nan
field sum 0
field sqrsum 0
field min 0
field max 0
attr interpolationmode  sample-hold
attr title  "channel no, histogram"
bin	-INF	0
bin	-0.5	0
bin	-0.46666666666667	0
bin	-0.43333333333333	0
bin	-0.4	0
bin	-0.36666666666667	0
bin	-0.33333333333333	0
bin	-0.3	0
bin	-0.26666666666667	0
bin	-0.23333333333333	0
bin	-0.2	0
bin	-0.16666666666667	0
bin	-0.13333333333333	0
bin	-0.1	0
bin	-0.066666666666667	0
bin	-0.033333333333333	0
bin	0	0
bin	0.033333333333333	0
bin	0.066666666666667	0
bin	0.1	0
bin	0.13333333333333	0
bin	0.16666666666667	0
bin	0.2	0
bin	0.23333333333333	0
bin	0.26666666666667	0
bin	0.3	0
bin	0.33333333333333	0
bin	0.36666666666667	0
bin	0.4	0
bin	0.43333333333333	0
bin	0.46666666666667	0
bin	0.5	0
scalar BasicTopology.peer[2].wlan[0].radio 	bitrate:min 	-nan
attr interpolationmode  sample-hold
attr title  "tx bitrate, min"
attr unit  bps
scalar BasicTopology.peer[2].wlan[0].radio 	bitrate:max 	-nan
attr interpolationmode  sample-hold
attr title  "tx bitrate, max"
attr unit  bps
scalar BasicTopology.peer[2].wlan[0].radio 	bitrate:timeavg 	-nan
attr interpolationmode  sample-hold
attr title  "tx bitrate, timeavg"
attr unit  bps
statistic BasicTopology.peer[2].bitTorrentApp.swarmManager 	ContentManager_PieceDownloadTime:histogram
field count 0
field mean 0
field stddev -nan
field sum 0
field sqrsum 0
field min 0
field max 0
attr title  "Swarm Piece Download Time, histogram"
bin	-INF	0
bin	-0.5	0
bin	-0.46666666666667	0
bin	-0.43333333333333	0
bin	-0.4	0
bin	-0.36666666666667	0
bin	-0.33333333333333	0
bin	-0.3	0
bin	-0.26666666666667	0
bin	-0.23333333333333	0
bin	-0.2	0
bin	-0.16666666666667	0
bin	-0.13333333333333	0
bin	-0.1	0
bin	-0.066666666666667	0
bin	-0.033333333333333	0
bin	0	0
bin	0.033333333333333	0
bin	0.066666666666667	0
bin	0.1	0
bin	0.13333333333333	0
bin	0.16666666666667	0
bin	0.2	0
bin	0.23333333333333	0
bin	0.26666666666667	0
bin	0.3	0
bin	0.33333333333333	0
bin	0.36666666666667	0
bin	0.4	0
bin	0.43333333333333	0
bin	0.46666666666667	0
bin	0.5	0
statistic BasicTopology.peer[2].bitTorrentApp.swarmManager 	ContentManager_100_percentDownloadMarkTime:histogram
field count 0
field mean 0
field stddev -nan
field sum 0
field sqrsum 0
field min 0
field max 0
attr title  "100% Download Time Ordinate, histogram"
attr unit  s
bin	-INF	0
bin	-0.5	0
bin	-0.46666666666667	0
bin	-0.43333333333333	0
bin	-0.4	0
bin	-0.36666666666667	0
bin	-0.33333333333333	0
bin	-0.3	0
bin	-0.26666666666667	0
bin	-0.23333333333333	0
bin	-0.2	0
bin	-0.16666666666667	0
bin	-0.13333333333333	0
bin	-0.1	0
bin	-0.066666666666667	0
bin	-0.033333333333333	0
bin	0	0
bin	0.033333333333333	0
bin	0.066666666666667	0
bin	0.1	0
bin	0.13333333333333	0
bin	0.16666666666667	0
bin	0.2	0
bin	0.23333333333333	0
bin	0.26666666666667	0
bin	0.3	0
bin	0.33333333333333	0
bin	0.36666666666667	0
bin	0.4	0
bin	0.43333333333333	0
bin	0.46666666666667	0
bin	0.5	0
statistic BasicTopology.peer[2].bitTorrentApp.swarmManager 	ContentManager_75_percentDownloadMarkTime:histogram
field count 0
field mean 0
field stddev -nan
field sum 0
field sqrsum 0
field min 0
field max 0
attr title  "75% Download Time Ordinate, histogram"
attr unit  s
bin	-INF	0
bin	-0.5	0
bin	-0.46666666666667	0
bin	-0.43333333333333	0
bin	-0.4	0
bin	-0.36666666666667	0
bin	-0.33333333333333	0
bin	-0.3	0
bin	-0.26666666666667	0
bin	-0.23333333333333	0
bin	-0.2	0
bin	-0.16666666666667	0
bin	-0.13333333333333	0
bin	-0.1	0
bin	-0.066666666666667	0
bin	-0.033333333333333	0
bin	0	0
bin	0.033333333333333	0
bin	0.066666666666667	0
bin	0.1	0
bin	0.13333333333333	0
bin	0.16666666666667	0
bin	0.2	0
bin	0.23333333333333	0
bin	0.26666666666667	0
bin	0.3	0
bin	0.33333333333333	0
bin	0.36666666666667	0
bin	0.4	0
bin	0.43333333333333	0
bin	0.46666666666667	0
bin	0.5	0
statistic BasicTopology.peer[2].bitTorrentApp.swarmManager 	ContentManager_50_percentDownloadMarkTime:histogram
field count 0
field mean 0
field stddev -nan
field sum 0
field sqrsum 0
field min 0
field max 0
attr title  "50% Download Time Ordinate, histogram"
attr unit  s
bin	-INF	0
bin	-0.5	0
bin	-0.46666666666667	0
bin	-0.43333333333333	0
bin	-0.4	0
bin	-0.36666666666667	0
bin	-0.33333333333333	0
bin	-0.3	0
bin	-0.26666666666667	0
bin	-0.23333333333333	0
bin	-0.2	0
bin	-0.16666666666667	0
bin	-0.13333333333333	0
bin	-0.1	0
bin	-0.066666666666667	0
bin	-0.033333333333333	0
bin	0	0
bin	0.033333333333333	0
bin	0.066666666666667	0
bin	0.1	0
bin	0.13333333333333	0
bin	0.16666666666667	0
bin	0.2	0
bin	0.23333333333333	0
bin	0.26666666666667	0
bin	0.3	0
bin	0.33333333333333	0
bin	0.36666666666667	0
bin	0.4	0
bin	0.43333333333333	0
bin	0.46666666666667	0
bin	0.5	0
statistic BasicTopology.peer[2].bitTorrentApp.swarmManager 	ContentManager_25_percentDownloadMarkTime:histogram
field count 0
field mean 0
field stddev -nan
field sum 0
field sqrsum 0
field min 0
field max 0
attr title  "25% Download Time Ordinate, histogram"
attr unit  s
bin	-INF	0
bin	-0.5	0
bin	-0.46666666666667	0
bin	-0.43333333333333	0
bin	-0.4	0
bin	-0.36666666666667	0
bin	-0.33333333333333	0
bin	-0.3	0
bin	-0.26666666666667	0
bin	-0.23333333333333	0
bin	-0.2	0
bin	-0.16666666666667	0
bin	-0.13333333333333	0
bin	-0.1	0
bin	-0.066666666666667	0
bin	-0.033333333333333	0
bin	0	0
bin	0.033333333333333	0
bin	0.066666666666667	0
bin	0.1	0
bin	0.13333333333333	0
bin	0.16666666666667	0
bin	0.2	0
bin	0.23333333333333	0
bin	0.26666666666667	0
bin	0.3	0
bin	0.33333333333333	0
bin	0.36666666666667	0
bin	0.4	0
bin	0.43333333333333	0
bin	0.46666666666667	0
bin	0.5	0
scalar BasicTopology.peer[2].bitTorrentApp.swarmManager 	SwarmManager_EnteredSwarm:last 	-nan
attr title  "Enter Swarm Instant, last"
scalar BasicTopology.peer[2].bitTorrentApp.bitTorrentClient.contentManager_26 	ContentManager_75_percentDownloadMarkTime:last 	-nan
attr title  "75% Download Time Ordinate, last"
attr unit  s
scalar BasicTopology.peer[2].bitTorrentApp.bitTorrentClient.contentManager_26 	ContentManager_50_percentDownloadMarkTime:last 	-nan
attr title  "50% Download Time Ordinate, last"
attr unit  s
scalar BasicTopology.peer[2].bitTorrentApp.bitTorrentClient.contentManager_26 	ContentManager_25_percentDownloadMarkTime:last 	-nan
attr title  "25% Download Time Ordinate, last"
attr unit  s
statistic BasicTopology.peer[2].bitTorrentApp.bitTorrentClient 	"Piece processing time histogram"
field count 2936
field mean 0.0073639305177112
field stddev 0.0099766190078884
field sum 21.6205
field sqrsum 0.451341
field min 0
field max 0.102482
bin	-INF	0
bin	0	936
bin	0.000909091	352
bin	0.001818182	155
bin	0.002727273	108
bin	0.003636364	126
bin	0.004545455	111
bin	0.005454546	58
bin	0.006363637	55
bin	0.007272728	27
bin	0.008181819	55
bin	0.00909091	55
bin	0.010000001	85
bin	0.010909092	81
bin	0.011818183	66
bin	0.012727274	70
bin	0.013636365	71
bin	0.014545456	54
bin	0.015454547	41
bin	0.016363638	49
bin	0.017272729	44
bin	0.01818182	40
bin	0.019090911	33
bin	0.020000002	31
bin	0.020909093	22
bin	0.021818184	27
bin	0.022727275	16
bin	0.023636366	16
bin	0.024545457	14
bin	0.025454548	15
bin	0.026363639	9
bin	0.02727273	11
bin	0.028181821	11
bin	0.029090912	5
bin	0.030000003	9
bin	0.030909094	9
bin	0.031818185	3
bin	0.032727276	5
bin	0.033636367	4
bin	0.034545458	4
bin	0.035454549	4
bin	0.03636364	1
bin	0.037272731	2
bin	0.038181822	4
bin	0.039090913	3
bin	0.040000004	2
bin	0.040909095	3
bin	0.041818186	3
bin	0.042727277	3
bin	0.043636368	0
bin	0.044545459	0
bin	0.04545455	2
bin	0.046363641	1
bin	0.047272732	0
bin	0.048181823	1
bin	0.049090914	2
bin	0.05	22
scalar BasicTopology.peer[3].networkLayer.arp 	failedResolution:count 	0
attr title  "ARP failed resolutions, count"
scalar BasicTopology.peer[3].networkLayer.arp 	initiatedResolution:count 	9
attr title  "ARP initiated resolutions, count"
scalar BasicTopology.peer[3].networkLayer.arp 	sentReplies:count 	0
attr title  "ARP replies sent, count"
scalar BasicTopology.peer[3].networkLayer.arp 	sentReq:count 	9
attr title  "ARP request sent, count"
scalar BasicTopology.peer[3].wlan[0].mgmt 	dropPkByQueue:count 	1149
attr interpolationmode  none
attr source  dropPkByQueue
attr title  "packets dropped by queue, count"
scalar BasicTopology.peer[3].wlan[0].mgmt 	dropPkByQueue:sum(packetBytes) 	415320
attr interpolationmode  none
attr source  dropPkByQueue
attr title  "packets dropped by queue, sum(packetBytes)"
scalar BasicTopology.peer[3].wlan[0].mgmt 	dataQueueLen:max 	10
attr interpolationmode  sample-hold
attr title  "data queue length, max"
scalar BasicTopology.peer[3].wlan[0].mgmt 	dataQueueLen:timeavg 	0.50105830385839
attr interpolationmode  sample-hold
attr title  "data queue length, timeavg"
scalar BasicTopology.peer[3].wlan[0].mac 	"number of received packets" 	58337
scalar BasicTopology.peer[3].wlan[0].mac 	"number of collisions" 	82619
scalar BasicTopology.peer[3].wlan[0].mac 	"number of internal collisions" 	0
scalar BasicTopology.peer[3].wlan[0].mac 	"number of retry for AC 0" 	51583
scalar BasicTopology.peer[3].wlan[0].mac 	"sent and receive bites" 	175992464
scalar BasicTopology.peer[3].wlan[0].mac 	"sent packet within AC 0" 	58346
scalar BasicTopology.peer[3].wlan[0].mac 	"sent in TXOP " 	0
scalar BasicTopology.peer[3].wlan[0].mac 	"sentWithoutRetry AC 0" 	36234
scalar BasicTopology.peer[3].wlan[0].mac 	"numGivenUp AC 0" 	1060
scalar BasicTopology.peer[3].wlan[0].mac 	"numDropped AC 0" 	0
scalar BasicTopology.peer[3].wlan[0].radio 	lossRate:min 	0
attr interpolationmode  backward-sample-hold
attr title  "packet loss rate, min"
scalar BasicTopology.peer[3].wlan[0].radio 	lossRate:max 	0.56
attr interpolationmode  backward-sample-hold
attr title  "packet loss rate, max"
scalar BasicTopology.peer[3].wlan[0].radio 	lossRate:timeavg 	0.068984736977488
attr interpolationmode  backward-sample-hold
attr title  "packet loss rate, timeavg"
scalar BasicTopology.peer[3].wlan[0].radio 	radioState:count 	3263678
attr interpolationmode  sample-hold
attr title  "radio state (enum), count"
statistic BasicTopology.peer[3].wlan[0].radio 	channelNo:histogram
field count 0
field mean 0
field stddev -nan
field sum 0
field sqrsum 0
field min 0
field max 0
attr interpolationmode  sample-hold
attr title  "channel no, histogram"
bin	-INF	0
bin	-0.5	0
bin	-0.46666666666667	0
bin	-0.43333333333333	0
bin	-0.4	0
bin	-0.36666666666667	0
bin	-0.33333333333333	0
bin	-0.3	0
bin	-0.26666666666667	0
bin	-0.23333333333333	0
bin	-0.2	0
bin	-0.16666666666667	0
bin	-0.13333333333333	0
bin	-0.1	0
bin	-0.066666666666667	0
bin	-0.033333333333333	0
bin	0	0
bin	0.033333333333333	0
bin	0.066666666666667	0
bin	0.1	0
bin	0.13333333333333	0
bin	0.16666666666667	0
bin	0.2	0
bin	0.23333333333333	0
bin	0.26666666666667	0
bin	0.3	0
bin	0.33333333333333	0
bin	0.36666666666667	0
bin	0.4	0
bin	0.43333333333333	0
bin	0.46666666666667	0
bin	0.5	0
scalar BasicTopology.peer[3].wlan[0].radio 	bitrate:min 	-nan
attr interpolationmode  sample-hold
attr title  "tx bitrate, min"
attr unit  bps
scalar BasicTopology.peer[3].wlan[0].radio 	bitrate:max 	-nan
attr interpolationmode  sample-hold
attr title  "tx bitrate, max"
attr unit  bps
scalar BasicTopology.peer[3].wlan[0].radio 	bitrate:timeavg 	-nan
attr interpolationmode  sample-hold
attr title  "tx bitrate, timeavg"
attr unit  bps
statistic BasicTopology.peer[3].bitTorrentApp.swarmManager 	ContentManager_PieceDownloadTime:histogram
field count 0
field mean 0
field stddev -nan
field sum 0
field sqrsum 0
field min 0
field max 0
attr title  "Swarm Piece Download Time, histogram"
bin	-INF	0
bin	-0.5	0
bin	-0.46666666666667	0
bin	-0.43333333333333	0
bin	-0.4	0
bin	-0.36666666666667	0
bin	-0.33333333333333	0
bin	-0.3	0
bin	-0.26666666666667	0
bin	-0.23333333333333	0
bin	-0.2	0
bin	-0.16666666666667	0
bin	-0.13333333333333	0
bin	-0.1	0
bin	-0.066666666666667	0
bin	-0.033333333333333	0
bin	0	0
bin	0.033333333333333	0
bin	0.066666666666667	0
bin	0.1	0
bin	0.13333333333333	0
bin	0.16666666666667	0
bin	0.2	0
bin	0.23333333333333	0
bin	0.26666666666667	0
bin	0.3	0
bin	0.33333333333333	0
bin	0.36666666666667	0
bin	0.4	0
bin	0.43333333333333	0
bin	0.46666666666667	0
bin	0.5	0
statistic BasicTopology.peer[3].bitTorrentApp.swarmManager 	ContentManager_100_percentDownloadMarkTime:histogram
field count 0
field mean 0
field stddev -nan
field sum 0
field sqrsum 0
field min 0
field max 0
attr title  "100% Download Time Ordinate, histogram"
attr unit  s
bin	-INF	0
bin	-0.5	0
bin	-0.46666666666667	0
bin	-0.43333333333333	0
bin	-0.4	0
bin	-0.36666666666667	0
bin	-0.33333333333333	0
bin	-0.3	0
bin	-0.26666666666667	0
bin	-0.23333333333333	0
bin	-0.2	0
bin	-0.16666666666667	0
bin	-0.13333333333333	0
bin	-0.1	0
bin	-0.066666666666667	0
bin	-0.033333333333333	0
bin	0	0
bin	0.033333333333333	0
bin	0.066666666666667	0
bin	0.1	0
bin	0.13333333333333	0
bin	0.16666666666667	0
bin	0.2	0
bin	0.23333333333333	0
bin	0.26666666666667	0
bin	0.3	0
bin	0.33333333333333	0
bin	0.36666666666667	0
bin	0.4	0
bin	0.43333333333333	0
bin	0.46666666666667	0
bin	0.5	0
statistic BasicTopology.peer[3].bitTorrentApp.swarmManager 	ContentManager_75_percentDownloadMarkTime:histogram
field count 0
field mean 0
field stddev -nan
field sum 0
field sqrsum 0
field min 0
field max 0
attr title  "75% Download Time Ordinate, histogram"
attr unit  s
bin	-INF	0
bin	-0.5	0
bin	-0.46666666666667	0
bin	-0.43333333333333	0
bin	-0.4	0
bin	-0.36666666666667	0
bin	-0.33333333333333	0
bin	-0.3	0
bin	-0.26666666666667	0
bin	-0.23333333333333	0
bin	-0.2	0
bin	-0.16666666666667	0
bin	-0.13333333333333	0
bin	-0.1	0
bin	-0.066666666666667	0
bin	-0.033333333333333	0
bin	0	0
bin	0.033333333333333	0
bin	0.066666666666667	0
bin	0.1	0
bin	0.13333333333333	0
bin	0.16666666666667	0
bin	0.2	0
bin	0.23333333333333	0
bin	0.26666666666667	0
bin	0.3	0
bin	0.33333333333333	0
bin	0.36666666666667	0
bin	0.4	0
bin	0.43333333333333	0
bin	0.46666666666667	0
bin	0.5	0
statistic BasicTopology.peer[3].bitTorrentApp.swarmManager 	ContentManager_50_percentDownloadMarkTime:histogram
field count 0
field mean 0
field stddev -nan
field sum 0
field sqrsum 0
field min 0
field max 0
attr title  "50% Download Time Ordinate, histogram"
attr unit  s
bin	-INF	0
bin	-0.5	0
bin	-0.46666666666667	0
bin	-0.43333333333333	0
bin	-0.4	0
bin	-0.36666666666667	0
bin	-0.33333333333333	0
bin	-0.3	0
bin	-0.26666666666667	0
bin	-0.23333333333333	0
bin	-0.2	0
bin	-0.16666666666667	0
bin	-0.13333333333333	0
bin	-0.1	0
bin	-0.066666666666667	0
bin	-0.033333333333333	0
bin	0	0
bin	0.033333333333333	0
bin	0.066666666666667	0
bin	0.1	0
bin	0.13333333333333	0
bin	0.16666666666667	0
bin	0.2	0
bin	0.23333333333333	0
bin	0.26666666666667	0
bin	0.3	0
bin	0.33333333333333	0
bin	0.36666666666667	0
bin	0.4	0
bin	0.43333333333333	0
bin	0.46666666666667	0
bin	0.5	0
statistic BasicTopology.peer[3].bitTorrentApp.swarmManager 	ContentManager_25_percentDownloadMarkTime:histogram
field count 0
field mean 0
field stddev -nan
field sum 0
field sqrsum 0
field min 0
field max 0
attr title  "25% Download Time Ordinate, histogram"
attr unit  s
bin	-INF	0
bin	-0.5	0
bin	-0.46666666666667	0
bin	-0.43333333333333	0
bin	-0.4	0
bin	-0.36666666666667	0
bin	-0.33333333333333	0
bin	-0.3	0
bin	-0.26666666666667	0
bin	-0.23333333333333	0
bin	-0.2	0
bin	-0.16666666666667	0
bin	-0.13333333333333	0
bin	-0.1	0
bin	-0.066666666666667	0
bin	-0.033333333333333	0
bin	0	0
bin	0.033333333333333	0
bin	0.066666666666667	0
bin	0.1	0
bin	0.13333333333333	0
bin	0.16666666666667	0
bin	0.2	0
bin	0.23333333333333	0
bin	0.26666666666667	0
bin	0.3	0
bin	0.33333333333333	0
bin	0.36666666666667	0
bin	0.4	0
bin	0.43333333333333	0
bin	0.46666666666667	0
bin	0.5	0
scalar BasicTopology.peer[3].bitTorrentApp.swarmManager 	SwarmManager_EnteredSwarm:last 	-nan
attr title  "Enter Swarm Instant, last"
scalar BasicTopology.peer[3].bitTorrentApp.bitTorrentClient.contentManager_26 	ContentManager_75_percentDownloadMarkTime:last 	-nan
attr title  "75% Download Time Ordinate, last"
attr unit  s
scalar BasicTopology.peer[3].bitTorrentApp.bitTorrentClient.contentManager_26 	ContentManager_50_percentDownloadMarkTime:last 	-nan
attr title  "50% Download Time Ordinate, last"
attr unit  s
scalar BasicTopology.peer[3].bitTorrentApp.bitTorrentClient.contentManager_26 	ContentManager_25_percentDownloadMarkTime:last 	-nan
attr title  "25% Download Time Ordinate, last"
attr unit  s
statistic BasicTopology.peer[3].bitTorrentApp.bitTorrentClient 	"Piece processing time histogram"
field count 2936
field mean 0.0073639305177112
field stddev 0.0099766190078884
field sum 21.6205
field sqrsum 0.451341
field min 0
field max 0.102482
bin	-INF	0
bin	0	936
bin	0.000909091	352
bin	0.001818182	155
bin	0.002727273	108
bin	0.003636364	126
bin	0.004545455	111
bin	0.005454546	58
bin	0.006363637	55
bin	0.007272728	27
bin	0.008181819	55
bin	0.00909091	55
bin	0.010000001	85
bin	0.010909092	81
bin	0.011818183	66
bin	0.012727274	70
bin	0.013636365	71
bin	0.014545456	54
bin	0.015454547	41
bin	0.016363638	49
bin	0.017272729	44
bin	0.01818182	40
bin	0.019090911	33
bin	0.020000002	31
bin	0.020909093	22
bin	0.021818184	27
bin	0.022727275	16
bin	0.023636366	16
bin	0.024545457	14
bin	0.025454548	15
bin	0.026363639	9
bin	0.02727273	11
bin	0.028181821	11
bin	0.029090912	5
bin	0.030000003	9
bin	0.030909094	9
bin	0.031818185	3
bin	0.032727276	5
bin	0.033636367	4
bin	0.034545458	4
bin	0.035454549	4
bin	0.03636364	1
bin	0.037272731	2
bin	0.038181822	4
bin	0.039090913	3
bin	0.040000004	2
bin	0.040909095	3
bin	0.041818186	3
bin	0.042727277	3
bin	0.043636368	0
bin	0.044545459	0
bin	0.04545455	2
bin	0.046363641	1
bin	0.047272732	0
bin	0.048181823	1
bin	0.049090914	2
bin	0.05	22
scalar BasicTopology.peer[4].networkLayer.arp 	failedResolution:count 	0
attr title  "ARP failed resolutions, count"
scalar BasicTopology.peer[4].networkLayer.arp 	initiatedResolution:count 	5
attr title  "ARP initiated resolutions, count"
scalar BasicTopology.peer[4].networkLayer.arp 	sentReplies:count 	0
attr title  "ARP replies sent, count"
scalar BasicTopology.peer[4].networkLayer.arp 	sentReq:count 	5
attr title  "ARP request sent, count"
scalar BasicTopology.peer[4].wlan[0].mgmt 	dropPkByQueue:count 	1212
attr interpolationmode  none
attr source  dropPkByQueue
attr title  "packets dropped by queue, count"
scalar BasicTopology.peer[4].wlan[0].mgmt 	dropPkByQueue:sum(packetBytes) 	404617
attr interpolationmode  none
attr source  dropPkByQueue
attr title  "packets dropped by queue, sum(packetBytes)"
scalar BasicTopology.peer[4].wlan[0].mgmt 	dataQueueLen:max 	10
attr interpolationmode  sample-hold
attr title  "data queue length, max"
scalar BasicTopology.peer[4].wlan[0].mgmt 	dataQueueLen:timeavg 	0.46605317976208
attr interpolationmode  sample-hold
attr title  "data queue length, timeavg"
scalar BasicTopology.peer[4].wlan[0].mac 	"number of received packets" 	69208
scalar BasicTopology.peer[4].wlan[0].mac 	"number of collisions" 	84373
scalar BasicTopology.peer[4].wlan[0].mac 	"number of internal collisions" 	0
scalar BasicTopology.peer[4].wlan[0].mac 	"number of retry for AC 0" 	48961
scalar BasicTopology.peer[4].wlan[0].mac 	"sent and receive bites" 	198185240
scalar BasicTopology.peer[4].wlan[0].mac 	"sent packet within AC 0" 	68559
scalar BasicTopology.peer[4].wlan[0].mac 	"sent in TXOP " 	0
scalar BasicTopology.peer[4].wlan[0].mac 	"sentWithoutRetry AC 0" 	45828
scalar BasicTopology.peer[4].wlan[0].mac 	"numGivenUp AC 0" 	761
scalar BasicTopology.peer[4].wlan[0].mac 	"numDropped AC 0" 	0
scalar BasicTopology.peer[4].wlan[0].radio 	lossRate:min 	0
attr interpolationmode  backward-sample-hold
attr title  "packet loss rate, min"
scalar BasicTopology.peer[4].wlan[0].radio 	lossRate:max 	0.54
attr interpolationmode  backward-sample-hold
attr title  "packet loss rate, max"
scalar BasicTopology.peer[4].wlan[0].radio 	lossRate:timeavg 	0.064166427974926
attr interpolationmode  backward-sample-hold
attr title  "packet loss rate, timeavg"
scalar BasicTopology.peer[4].wlan[0].radio 	radioState:count 	3606680
attr interpolationmode  sample-hold
attr title  "radio state (enum), count"
statistic BasicTopology.peer[4].wlan[0].radio 	channelNo:histogram
field count 0
field mean 0
field stddev -nan
field sum 0
field sqrsum 0
field min 0
field max 0
attr interpolationmode  sample-hold
attr title  "channel no, histogram"
bin	-INF	0
bin	-0.5	0
bin	-0.46666666666667	0
bin	-0.43333333333333	0
bin	-0.4	0
bin	-0.36666666666667	0
bin	-0.33333333333333	0
bin	-0.3	0
bin	-0.26666666666667	0
bin	-0.23333333333333	0
bin	-0.2	0
bin	-0.16666666666667	0
bin	-0.13333333333333	0
bin	-0.1	0
bin	-0.066666666666667	0
bin	-0.033333333333333	0
bin	0	0
bin	0.033333333333333	0
bin	0.066666666666667	0
bin	0.1	0
bin	0.13333333333333	0
bin	0.16666666666667	0
bin	0.2	0
bin	0.23333333333333	0
bin	0.26666666666667	0
bin	0.3	0
bin	0.33333333333333	0
bin	0.36666666666667	0
bin	0.4	0
bin	0.43333333333333	0
bin	0.46666666666667	0
bin	0.5	0
scalar BasicTopology.peer[4].wlan[0].radio 	bitrate:min 	-nan
attr interpolationmode  sample-hold
attr title  "tx bitrate, min"
attr unit  bps
scalar BasicTopology.peer[4].wlan[0].radio 	bitrate:max 	-nan
attr interpolationmode  sample-hold
attr title  "tx bitrate, max"
attr unit  bps
scalar BasicTopology.peer[4].wlan[0].radio 	bitrate:timeavg 	-nan
attr interpolationmode  sample-hold
attr title  "tx bitrate, timeavg"
attr unit  bps
statistic BasicTopology.peer[4].bitTorrentApp.swarmManager 	ContentManager_PieceDownloadTime:histogram
field count 0
field mean 0
field stddev -nan
field sum 0
field sqrsum 0
field min 0
field max 0
attr title  "Swarm Piece Download Time, histogram"
bin	-INF	0
bin	-0.5	0
bin	-0.46666666666667	0
bin	-0.43333333333333	0
bin	-0.4	0
bin	-0.36666666666667	0
bin	-0.33333333333333	0
bin	-0.3	0
bin	-0.26666666666667	0
bin	-0.23333333333333	0
bin	-0.2	0
bin	-0.16666666666667	0
bin	-0.13333333333333	0
bin	-0.1	0
bin	-0.066666666666667	0
bin	-0.033333333333333	0
bin	0	0
bin	0.033333333333333	0
bin	0.066666666666667	0
bin	0.1	0
bin	0.13333333333333	0
bin	0.16666666666667	0
bin	0.2	0
bin	0.23333333333333	0
bin	0.26666666666667	0
bin	0.3	0
bin	0.33333333333333	0
bin	0.36666666666667	0
bin	0.4	0
bin	0.43333333333333	0
bin	0.46666666666667	0
bin	0.5	0
statistic BasicTopology.peer[4].bitTorrentApp.swarmManager 	ContentManager_100_percentDownloadMarkTime:histogram
field count 0
field mean 0
field stddev -nan
field sum 0
field sqrsum 0
field min 0
field max 0
attr title  "100% Download Time Ordinate, histogram"
attr unit  s
bin	-INF	0
bin	-0.5	0
bin	-0.46666666666667	0
bin	-0.43333333333333	0
bin	-0.4	0
bin	-0.36666666666667	0
bin	-0.33333333333333	0
bin	-0.3	0
bin	-0.26666666666667	0
bin	-0.23333333333333	0
bin	-0.2	0
bin	-0.16666666666667	0
bin	-0.13333333333333	0
bin	-0.1	0
bin	-0.066666666666667	0
bin	-0.033333333333333	0
bin	0	0
bin	0.033333333333333	0
bin	0.066666666666667	0
bin	0.1	0
bin	0.13333333333333	0
bin	0.16666666666667	0
bin	0.2	0
bin	0.23333333333333	0
bin	0.26666666666667	0
bin	0.3	0
bin	0.33333333333333	0
bin	0.36666666666667	0
bin	0.4	0
bin	0.43333333333333	0
bin	0.46666666666667	0
bin	0.5	0
statistic BasicTopology.peer[4].bitTorrentApp.swarmManager 	ContentManager_75_percentDownloadMarkTime:histogram
field count 0
field mean 0
field stddev -nan
field sum 0
field sqrsum 0
field min 0
field max 0
attr title  "75% Download Time Ordinate, histogram"
attr unit  s
bin	-INF	0
bin	-0.5	0
bin	-0.46666666666667	0
bin	-0.43333333333333	0
bin	-0.4	0
bin	-0.36666666666667	0
bin	-0.33333333333333	0
bin	-0.3	0
bin	-0.26666666666667	0
bin	-0.23333333333333	0
bin	-0.2	0
bin	-0.16666666666667	0
bin	-0.13333333333333	0
bin	-0.1	0
bin	-0.066666666666667	0
bin	-0.033333333333333	0
bin	0	0
bin	0.033333333333333	0
bin	0.066666666666667	0
bin	0.1	0
bin	0.13333333333333	0
bin	0.16666666666667	0
bin	0.2	0
bin	0.23333333333333	0
bin	0.26666666666667	0
bin	0.3	0
bin	0.33333333333333	0
bin	0.36666666666667	0
bin	0.4	0
bin	0.43333333333333	0
bin	0.46666666666667	0
bin	0.5	0
statistic BasicTopology.peer[4].bitTorrentApp.swarmManager 	ContentManager_50_percentDownloadMarkTime:histogram
field count 0
field mean 0
field stddev -nan
field sum 0
field sqrsum 0
field min 0
field max 0
attr title  "50% Download Time Ordinate, histogram"
attr unit  s
bin	-INF	0
bin	-0.5	0
bin	-0.46666666666667	0
bin	-0.43333333333333	0
bin	-0.4	0
bin	-0.36666666666667	0
bin	-0.33333333333333	0
bin	-0.3	0
bin	-0.26666666666667	0
bin	-0.23333333333333	0
bin	-0.2	0
bin	-0.16666666666667	0
bin	-0.13333333333333	0
bin	-0.1	0
bin	-0.066666666666667	0
bin	-0.033333333333333	0
bin	0	0
bin	0.033333333333333	0
bin	0.066666666666667	0
bin	0.1	0
bin	0.13333333333333	0
bin	0.16666666666667	0
bin	0.2	0
bin	0.23333333333333	0
bin	0.26666666666667	0
bin	0.3	0
bin	0.33333333333333	0
bin	0.36666666666667	0
bin	0.4	0
bin	0.43333333333333	0
bin	0.46666666666667	0
bin	0.5	0
statistic BasicTopology.peer[4].bitTorrentApp.swarmManager 	ContentManager_25_percentDownloadMarkTime:histogram
field count 0
field mean 0
field stddev -nan
field sum 0
field sqrsum 0
field min 0
field max 0
attr title  "25% Download Time Ordinate, histogram"
attr unit  s
bin	-INF	0
bin	-0.5	0
bin	-0.46666666666667	0
bin	-0.43333333333333	0
bin	-0.4	0
bin	-0.36666666666667	0
bin	-0.33333333333333	0
bin	-0.3	0
bin	-0.26666666666667	0
bin	-0.23333333333333	0
bin	-0.2	0
bin	-0.16666666666667	0
bin	-0.13333333333333	0
bin	-0.1	0
bin	-0.066666666666667	0
bin	-0.033333333333333	0
bin	0	0
bin	0.033333333333333	0
bin	0.066666666666667	0
bin	0.1	0
bin	0.13333333333333	0
bin	0.16666666666667	0
bin	0.2	0
bin	0.23333333333333	0
bin	0.26666666666667	0
bin	0.3	0
bin	0.33333333333333	0
bin	0.36666666666667	0
bin	0.4	0
bin	0.43333333333333	0
bin	0.46666666666667	0
bin	0.5	0
scalar BasicTopology.peer[4].bitTorrentApp.swarmManager 	SwarmManager_EnteredSwarm:last 	-nan
attr title  "Enter Swarm Instant, last"
scalar BasicTopology.peer[4].bitTorrentApp.bitTorrentClient.contentManager_26 	ContentManager_75_percentDownloadMarkTime:last 	-nan
attr title  "75% Download Time Ordinate, last"
attr unit  s
scalar BasicTopology.peer[4].bitTorrentApp.bitTorrentClient.contentManager_26 	ContentManager_50_percentDownloadMarkTime:last 	-nan
attr title  "50% Download Time Ordinate, last"
attr unit  s
scalar BasicTopology.peer[4].bitTorrentApp.bitTorrentClient.contentManager_26 	ContentManager_25_percentDownloadMarkTime:last 	-nan
attr title  "25% Download Time Ordinate, last"
attr unit  s
statistic BasicTopology.peer[4].bitTorrentApp.bitTorrentClient 	"Piece processing time histogram"
field count 2936
field mean 0.0073639305177112
field stddev 0.0099766190078884
field sum 21.6205
field sqrsum 0.451341
field min 0
field max 0.102482
bin	-INF	0
bin	0	936
bin	0.000909091	352
bin	0.001818182	155
bin	0.002727273	108
bin	0.003636364	126
bin	0.004545455	111
bin	0.005454546	58
bin	0.006363637	55
bin	0.007272728	27
bin	0.008181819	55
bin	0.00909091	55
bin	0.010000001	85
bin	0.010909092	81
bin	0.011818183	66
bin	0.012727274	70
bin	0.013636365	71
bin	0.014545456	54
bin	0.015454547	41
bin	0.016363638	49
bin	0.017272729	44
bin	0.01818182	40
bin	0.019090911	33
bin	0.020000002	31
bin	0.020909093	22
bin	0.021818184	27
bin	0.022727275	16
bin	0.023636366	16
bin	0.024545457	14
bin	0.025454548	15
bin	0.026363639	9
bin	0.02727273	11
bin	0.028181821	11
bin	0.029090912	5
bin	0.030000003	9
bin	0.030909094	9
bin	0.031818185	3
bin	0.032727276	5
bin	0.033636367	4
bin	0.034545458	4
bin	0.035454549	4
bin	0.03636364	1
bin	0.037272731	2
bin	0.038181822	4
bin	0.039090913	3
bin	0.040000004	2
bin	0.040909095	3
bin	0.041818186	3
bin	0.042727277	3
bin	0.043636368	0
bin	0.044545459	0
bin	0.04545455	2
bin	0.046363641	1
bin	0.047272732	0
bin	0.048181823	1
bin	0.049090914	2
bin	0.05	22
scalar BasicTopology.peer[5].networkLayer.arp 	failedResolution:count 	0
attr title  "ARP failed resolutions, count"
scalar BasicTopology.peer[5].networkLayer.arp 	initiatedResolution:count 	12
attr title  "ARP initiated resolutions, count"
scalar BasicTopology.peer[5].networkLayer.arp 	sentReplies:count 	0
attr title  "ARP replies sent, count"
scalar BasicTopology.peer[5].networkLayer.arp 	sentReq:count 	13
attr title  "ARP request sent, count"
scalar BasicTopology.peer[5].wlan[0].mgmt 	dropPkByQueue:count 	1463
attr interpolationmode  none
attr source  dropPkByQueue
attr title  "packets dropped by queue, count"
scalar BasicTopology.peer[5].wlan[0].mgmt 	dropPkByQueue:sum(packetBytes) 	455471
attr interpolationmode  none
attr source  dropPkByQueue
attr title  "packets dropped by queue, sum(packetBytes)"
scalar BasicTopology.peer[5].wlan[0].mgmt 	dataQueueLen:max 	10
attr interpolationmode  sample-hold
attr title  "data queue length, max"
scalar BasicTopology.peer[5].wlan[0].mgmt 	dataQueueLen:timeavg 	0.39624035355715
attr interpolationmode  sample-hold
attr title  "data queue length, timeavg"
scalar BasicTopology.peer[5].wlan[0].mac 	"number of received packets" 	91221
scalar BasicTopology.peer[5].wlan[0].mac 	"number of collisions" 	79259
scalar BasicTopology.peer[5].wlan[0].mac 	"number of internal collisions" 	0
scalar BasicTopology.peer[5].wlan[0].mac 	"number of retry for AC 0" 	53702
scalar BasicTopology.peer[5].wlan[0].mac 	"sent and receive bites" 	246505416
scalar BasicTopology.peer[5].wlan[0].mac 	"sent packet within AC 0" 	90258
scalar BasicTopology.peer[5].wlan[0].mac 	"sent in TXOP " 	0
scalar BasicTopology.peer[5].wlan[0].mac 	"sentWithoutRetry AC 0" 	62926
scalar BasicTopology.peer[5].wlan[0].mac 	"numGivenUp AC 0" 	475
scalar BasicTopology.peer[5].wlan[0].mac 	"numDropped AC 0" 	0
scalar BasicTopology.peer[5].wlan[0].radio 	lossRate:min 	0
attr interpolationmode  backward-sample-hold
attr title  "packet loss rate, min"
scalar BasicTopology.peer[5].wlan[0].radio 	lossRate:max 	0.56
attr interpolationmode  backward-sample-hold
attr title  "packet loss rate, max"
scalar BasicTopology.peer[5].wlan[0].radio 	lossRate:timeavg 	0.066271912501887
attr interpolationmode  backward-sample-hold
attr title  "packet loss rate, timeavg"
scalar BasicTopology.peer[5].wlan[0].radio 	radioState:count 	3738038
attr interpolationmode  sample-hold
attr title  "radio state (enum), count"
statistic BasicTopology.peer[5].wlan[0].radio 	channelNo:histogram
field count 0
field mean 0
field stddev -nan
field sum 0
field sqrsum 0
field min 0
field max 0
attr interpolationmode  sample-hold
attr title  "channel no, histogram"
bin	-INF	0
bin	-0.5	0
bin	-0.46666666666667	0
bin	-0.43333333333333	0
bin	-0.4	0
bin	-0.36666666666667	0
bin	-0.33333333333333	0
bin	-0.3	0
bin	-0.26666666666667	0
bin	-0.23333333333333	0
bin	-0.2	0
bin	-0.16666666666667	0
bin	-0.13333333333333	0
bin	-0.1	0
bin	-0.066666666666667	0
bin	-0.033333333333333	0
bin	0	0
bin	0.033333333333333	0
bin	0.066666666666667	0
bin	0.1	0
bin	0.13333333333333	0
bin	0.16666666666667	0
bin	0.2	0
bin	0.23333333333333	0
bin	0.26666666666667	0
bin	0.3	0
bin	0.33333333333333	0
bin	0.36666666666667	0
bin	0.4	0
bin	0.43333333333333	0
bin	0.46666666666667	0
bin	0.5	0
scalar BasicTopology.peer[5].wlan[0].radio 	bitrate:min 	-nan
attr interpolationmode  sample-hold
attr title  "tx bitrate, min"
attr unit  bps
scalar BasicTopology.peer[5].wlan[0].radio 	bitrate:max 	-nan
attr interpolationmode  sample-hold
attr title  "tx bitrate, max"
attr unit  bps
scalar BasicTopology.peer[5].wlan[0].radio 	bitrate:timeavg 	-nan
attr interpolationmode  sample-hold
attr title  "tx bitrate, timeavg"
attr unit  bps
statistic BasicTopology.peer[5].bitTorrentApp.swarmManager 	ContentManager_PieceDownloadTime:histogram
field count 0
field mean 0
field stddev -nan
field sum 0
field sqrsum 0
field min 0
field max 0
attr title  "Swarm Piece Download Time, histogram"
bin	-INF	0
bin	-0.5	0
bin	-0.46666666666667	0
bin	-0.43333333333333	0
bin	-0.4	0
bin	-0.36666666666667	0
bin	-0.33333333333333	0
bin	-0.3	0
bin	-0.26666666666667	0
bin	-0.23333333333333	0
bin	-0.2	0
bin	-0.16666666666667	0
bin	-0.13333333333333	0
bin	-0.1	0
bin	-0.066666666666667	0
bin	-0.033333333333333	0
bin	0	0
bin	0.033333333333333	0
bin	0.066666666666667	0
bin	0.1	0
bin	0.13333333333333	0
bin	0.16666666666667	0
bin	0.2	0
bin	0.23333333333333	0
bin	0.26666666666667	0
bin	0.3	0
bin	0.33333333333333	0
bin	0.36666666666667	0
bin	0.4	0
bin	0.43333333333333	0
bin	0.46666666666667	0
bin	0.5	0
statistic BasicTopology.peer[5].bitTorrentApp.swarmManager 	ContentManager_100_percentDownloadMarkTime:histogram
field count 0
field mean 0
field stddev -nan
field sum 0
field sqrsum 0
field min 0
field max 0
attr title  "100% Download Time Ordinate, histogram"
attr unit  s
bin	-INF	0
bin	-0.5	0
bin	-0.46666666666667	0
bin	-0.43333333333333	0
bin	-0.4	0
bin	-0.36666666666667	0
bin	-0.33333333333333	0
bin	-0.3	0
bin	-0.26666666666667	0
bin	-0.23333333333333	0
bin	-0.2	0
bin	-0.16666666666667	0
bin	-0.13333333333333	0
bin	-0.1	0
bin	-0.066666666666667	0
bin	-0.033333333333333	0
bin	0	0
bin	0.033333333333333	0
bin	0.066666666666667	0
bin	0.1	0
bin	0.13333333333333	0
bin	0.16666666666667	0
bin	0.2	0
bin	0.23333333333333	0
bin	0.26666666666667	0
bin	0.3	0
bin	0.33333333333333	0
bin	0.36666666666667	0
bin	0.4	0
bin	0.43333333333333	0
bin	0.46666666666667	0
bin	0.5	0
statistic BasicTopology.peer[5].bitTorrentApp.swarmManager 	ContentManager_75_percentDownloadMarkTime:histogram
field count 0
field mean 0
field stddev -nan
field sum 0
field sqrsum 0
field min 0
field max 0
attr title  "75% Download Time Ordinate, histogram"
attr unit  s
bin	-INF	0
bin	-0.5	0
bin	-0.46666666666667	0
bin	-0.43333333333333	0
bin	-0.4	0
bin	-0.36666666666667	0
bin	-0.33333333333333	0
bin	-0.3	0
bin	-0.26666666666667	0
bin	-0.23333333333333	0
bin	-0.2	0
bin	-0.16666666666667	0
bin	-0.13333333333333	0
bin	-0.1	0
bin	-0.066666666666667	0
bin	-0.033333333333333	0
bin	0	0
bin	0.033333333333333	0
bin	0.066666666666667	0
bin	0.1	0
bin	0.13333333333333	0
bin	0.16666666666667	0
bin	0.2	0
bin	0.23333333333333	0
bin	0.26666666666667	0
bin	0.3	0
bin	0.33333333333333	0
bin	0.36666666666667	0
bin	0.4	0
bin	0.43333333333333	0
bin	0.46666666666667	0
bin	0.5	0
statistic BasicTopology.peer[5].bitTorrentApp.swarmManager 	ContentManager_50_percentDownloadMarkTime:histogram
field count 0
field mean 0
field stddev -nan
field sum 0
field sqrsum 0
field min 0
field max 0
attr title  "50% Download Time Ordinate, histogram"
attr unit  s
bin	-INF	0
bin	-0.5	0
bin	-0.46666666666667	0
bin	-0.43333333333333	0
bin	-0.4	0
bin	-0.36666666666667	0
bin	-0.33333333333333	0
bin	-0.3	0
bin	-0.26666666666667	0
bin	-0.23333333333333	0
bin	-0.2	0
bin	-0.16666666666667	0
bin	-0.13333333333333	0
bin	-0.1	0
bin	-0.066666666666667	0
bin	-0.033333333333333	0
bin	0	0
bin	0.033333333333333	0
bin	0.066666666666667	0
bin	0.1	0
bin	0.13333333333333	0
bin	0.16666666666667	0
bin	0.2	0
bin	0.23333333333333	0
bin	0.26666666666667	0
bin	0.3	0
bin	0.33333333333333	0
bin	0.36666666666667	0
bin	0.4	0
bin	0.43333333333333	0
bin	0.46666666666667	0
bin	0.5	0
statistic BasicTopology.peer[5].bitTorrentApp.swarmManager 	ContentManager_25_percentDownloadMarkTime:histogram
field count 0
field mean 0
field stddev -nan
field sum 0
field sqrsum 0
field min 0
field max 0
attr title  "25% Download Time Ordinate, histogram"
attr unit  s
bin	-INF	0
bin	-0.5	0
bin	-0.46666666666667	0
bin	-0.43333333333333	0
bin	-0.4	0
bin	-0.36666666666667	0
bin	-0.33333333333333	0
bin	-0.3	0
bin	-0.26666666666667	0
bin	-0.23333333333333	0
bin	-0.2	0
bin	-0.16666666666667	0
bin	-0.13333333333333	0
bin	-0.1	0
bin	-0.066666666666667	0
bin	-0.033333333333333	0
bin	0	0
bin	0.033333333333333	0
bin	0.066666666666667	0
bin	0.1	0
bin	0.13333333333333	0
bin	0.16666666666667	0
bin	0.2	0
bin	0.23333333333333	0
bin	0.26666666666667	0
bin	0.3	0
bin	0.33333333333333	0
bin	0.36666666666667	0
bin	0.4	0
bin	0.43333333333333	0
bin	0.46666666666667	0
bin	0.5	0
scalar BasicTopology.peer[5].bitTorrentApp.swarmManager 	SwarmManager_EnteredSwarm:last 	-nan
attr title  "Enter Swarm Instant, last"
scalar BasicTopology.peer[5].bitTorrentApp.bitTorrentClient.contentManager_26 	ContentManager_75_percentDownloadMarkTime:last 	-nan
attr title  "75% Download Time Ordinate, last"
attr unit  s
scalar BasicTopology.peer[5].bitTorrentApp.bitTorrentClient.contentManager_26 	ContentManager_50_percentDownloadMarkTime:last 	-nan
attr title  "50% Download Time Ordinate, last"
attr unit  s
scalar BasicTopology.peer[5].bitTorrentApp.bitTorrentClient.contentManager_26 	ContentManager_25_percentDownloadMarkTime:last 	-nan
attr title  "25% Download Time Ordinate, last"
attr unit  s
statistic BasicTopology.peer[5].bitTorrentApp.bitTorrentClient 	"Piece processing time histogram"
field count 2936
field mean 0.0073639305177112
field stddev 0.0099766190078884
field sum 21.6205
field sqrsum 0.451341
field min 0
field max 0.102482
bin	-INF	0
bin	0	936
bin	0.000909091	352
bin	0.001818182	155
bin	0.002727273	108
bin	0.003636364	126
bin	0.004545455	111
bin	0.005454546	58
bin	0.006363637	55
bin	0.007272728	27
bin	0.008181819	55
bin	0.00909091	55
bin	0.010000001	85
bin	0.010909092	81
bin	0.011818183	66
bin	0.012727274	70
bin	0.013636365	71
bin	0.014545456	54
bin	0.015454547	41
bin	0.016363638	49
bin	0.017272729	44
bin	0.01818182	40
bin	0.019090911	33
bin	0.020000002	31
bin	0.020909093	22
bin	0.021818184	27
bin	0.022727275	16
bin	0.023636366	16
bin	0.024545457	14
bin	0.025454548	15
bin	0.026363639	9
bin	0.02727273	11
bin	0.028181821	11
bin	0.029090912	5
bin	0.030000003	9
bin	0.030909094	9
bin	0.031818185	3
bin	0.032727276	5
bin	0.033636367	4
bin	0.034545458	4
bin	0.035454549	4
bin	0.03636364	1
bin	0.037272731	2
bin	0.038181822	4
bin	0.039090913	3
bin	0.040000004	2
bin	0.040909095	3
bin	0.041818186	3
bin	0.042727277	3
bin	0.043636368	0
bin	0.044545459	0
bin	0.04545455	2
bin	0.046363641	1
bin	0.047272732	0
bin	0.048181823	1
bin	0.049090914	2
bin	0.05	22
scalar BasicTopology.peer[6].networkLayer.arp 	failedResolution:count 	0
attr title  "ARP failed resolutions, count"
scalar BasicTopology.peer[6].networkLayer.arp 	initiatedResolution:count 	5
attr title  "ARP initiated resolutions, count"
scalar BasicTopology.peer[6].networkLayer.arp 	sentReplies:count 	0
attr title  "ARP replies sent, count"
scalar BasicTopology.peer[6].networkLayer.arp 	sentReq:count 	5
attr title  "ARP request sent, count"
scalar BasicTopology.peer[6].wlan[0].mgmt 	dropPkByQueue:count 	315
attr interpolationmode  none
attr source  dropPkByQueue
attr title  "packets dropped by queue, count"
scalar BasicTopology.peer[6].wlan[0].mgmt 	dropPkByQueue:sum(packetBytes) 	48426
attr interpolationmode  none
attr source  dropPkByQueue
attr title  "packets dropped by queue, sum(packetBytes)"
scalar BasicTopology.peer[6].wlan[0].mgmt 	dataQueueLen:max 	10
attr interpolationmode  sample-hold
attr title  "data queue length, max"
scalar BasicTopology.peer[6].wlan[0].mgmt 	dataQueueLen:timeavg 	0.055700521743517
attr interpolationmode  sample-hold
attr title  "data queue length, timeavg"
scalar BasicTopology.peer[6].wlan[0].mac 	"number of received packets" 	19988
scalar BasicTopology.peer[6].wlan[0].mac 	"number of collisions" 	68736
scalar BasicTopology.peer[6].wlan[0].mac 	"number of internal collisions" 	0
scalar BasicTopology.peer[6].wlan[0].mac 	"number of retry for AC 0" 	11133
scalar BasicTopology.peer[6].wlan[0].mac 	"sent and receive bites" 	42216152
scalar BasicTopology.peer[6].wlan[0].mac 	"sent packet within AC 0" 	20321
scalar BasicTopology.peer[6].wlan[0].mac 	"sent in TXOP " 	0
scalar BasicTopology.peer[6].wlan[0].mac 	"sentWithoutRetry AC 0" 	14333
scalar BasicTopology.peer[6].wlan[0].mac 	"numGivenUp AC 0" 	47
scalar BasicTopology.peer[6].wlan[0].mac 	"numDropped AC 0" 	0
scalar BasicTopology.peer[6].wlan[0].radio 	lossRate:min 	0
attr interpolationmode  backward-sample-hold
attr title  "packet loss rate, min"
scalar BasicTopology.peer[6].wlan[0].radio 	lossRate:max 	0.44
attr interpolationmode  backward-sample-hold
attr title  "packet loss rate, max"
scalar BasicTopology.peer[6].wlan[0].radio 	lossRate:timeavg 	0.04751102825276
attr interpolationmode  backward-sample-hold
attr title  "packet loss rate, timeavg"
scalar BasicTopology.peer[6].wlan[0].radio 	radioState:count 	3254816
attr interpolationmode  sample-hold
attr title  "radio state (enum), count"
statistic BasicTopology.peer[6].wlan[0].radio 	channelNo:histogram
field count 0
field mean 0
field stddev -nan
field sum 0
field sqrsum 0
field min 0
field max 0
attr interpolationmode  sample-hold
attr title  "channel no, histogram"
bin	-INF	0
bin	-0.5	0
bin	-0.46666666666667	0
bin	-0.43333333333333	0
bin	-0.4	0
bin	-0.36666666666667	0
bin	-0.33333333333333	0
bin	-0.3	0
bin	-0.26666666666667	0
bin	-0.23333333333333	0
bin	-0.2	0
bin	-0.16666666666667	0
bin	-0.13333333333333	0
bin	-0.1	0
bin	-0.066666666666667	0
bin	-0.033333333333333	0
bin	0	0
bin	0.033333333333333	0
bin	0.066666666666667	0
bin	0.1	0
bin	0.13333333333333	0
bin	0.16666666666667	0
bin	0.2	0
bin	0.23333333333333	0
bin	0.26666666666667	0
bin	0.3	0
bin	0.33333333333333	0
bin	0.36666666666667	0
bin	0.4	0
bin	0.43333333333333	0
bin	0.46666666666667	0
bin	0.5	0
scalar BasicTopology.peer[6].wlan[0].radio 	bitrate:min 	-nan
attr interpolationmode  sample-hold
attr title  "tx bitrate, min"
attr unit  bps
scalar BasicTopology.peer[6].wlan[0].radio 	bitrate:max 	-nan
attr interpolationmode  sample-hold
attr title  "tx bitrate, max"
attr unit  bps
scalar BasicTopology.peer[6].wlan[0].radio 	bitrate:timeavg 	-nan
attr interpolationmode  sample-hold
attr title  "tx bitrate, timeavg"
attr unit  bps
statistic BasicTopology.peer[6].bitTorrentApp.swarmManager 	ContentManager_PieceDownloadTime:histogram
field count 0
field mean 0
field stddev -nan
field sum 0
field sqrsum 0
field min 0
field max 0
attr title  "Swarm Piece Download Time, histogram"
bin	-INF	0
bin	-0.5	0
bin	-0.46666666666667	0
bin	-0.43333333333333	0
bin	-0.4	0
bin	-0.36666666666667	0
bin	-0.33333333333333	0
bin	-0.3	0
bin	-0.26666666666667	0
bin	-0.23333333333333	0
bin	-0.2	0
bin	-0.16666666666667	0
bin	-0.13333333333333	0
bin	-0.1	0
bin	-0.066666666666667	0
bin	-0.033333333333333	0
bin	0	0
bin	0.033333333333333	0
bin	0.066666666666667	0
bin	0.1	0
bin	0.13333333333333	0
bin	0.16666666666667	0
bin	0.2	0
bin	0.23333333333333	0
bin	0.26666666666667	0
bin	0.3	0
bin	0.33333333333333	0
bin	0.36666666666667	0
bin	0.4	0
bin	0.43333333333333	0
bin	0.46666666666667	0
bin	0.5	0
statistic BasicTopology.peer[6].bitTorrentApp.swarmManager 	ContentManager_100_percentDownloadMarkTime:histogram
field count 0
field mean 0
field stddev -nan
field sum 0
field sqrsum 0
field min 0
field max 0
attr title  "100% Download Time Ordinate, histogram"
attr unit  s
bin	-INF	0
bin	-0.5	0
bin	-0.46666666666667	0
bin	-0.43333333333333	0
bin	-0.4	0
bin	-0.36666666666667	0
bin	-0.33333333333333	0
bin	-0.3	0
bin	-0.26666666666667	0
bin	-0.23333333333333	0
bin	-0.2	0
bin	-0.16666666666667	0
bin	-0.13333333333333	0
bin	-0.1	0
bin	-0.066666666666667	0
bin	-0.033333333333333	0
bin	0	0
bin	0.033333333333333	0
bin	0.066666666666667	0
bin	0.1	0
bin	0.13333333333333	0
bin	0.16666666666667	0
bin	0.2	0
bin	0.23333333333333	0
bin	0.26666666666667	0
bin	0.3	0
bin	0.33333333333333	0
bin	0.36666666666667	0
bin	0.4	0
bin	0.43333333333333	0
bin	0.46666666666667	0
bin	0.5	0
statistic BasicTopology.peer[6].bitTorrentApp.swarmManager 	ContentManager_75_percentDownloadMarkTime:histogram
field count 0
field mean 0
field stddev -nan
field sum 0
field sqrsum 0
field min 0
field max 0
attr title  "75% Download Time Ordinate, histogram"
attr unit  s
bin	-INF	0
bin	-0.5	0
bin	-0.46666666666667	0
bin	-0.43333333333333	0
bin	-0.4	0
bin	-0.36666666666667	0
bin	-0.33333333333333	0
bin	-0.3	0
bin	-0.26666666666667	0
bin	-0.23333333333333	0
bin	-0.2	0
bin	-0.16666666666667	0
bin	-0.13333333333333	0
bin	-0.1	0
bin	-0.066666666666667	0
bin	-0.033333333333333	0
bin	0	0
bin	0.033333333333333	0
bin	0.066666666666667	0
bin	0.1	0
bin	0.13333333333333	0
bin	0.16666666666667	0
bin	0.2	0
bin	0.23333333333333	0
bin	0.26666666666667	0
bin	0.3	0
bin	0.33333333333333	0
bin	0.36666666666667	0
bin	0.4	0
bin	0.43333333333333	0
bin	0.46666666666667	0
bin	0.5	0
statistic BasicTopology.peer[6].bitTorrentApp.swarmManager 	ContentManager_50_percentDownloadMarkTime:histogram
field count 0
field mean 0
field stddev -nan
field sum 0
field sqrsum 0
field min 0
field max 0
attr title  "50% Download Time Ordinate, histogram"
attr unit  s
bin	-INF	0
bin	-0.5	0
bin	-0.46666666666667	0
bin	-0.43333333333333	0
bin	-0.4	0
bin	-0.36666666666667	0
bin	-0.33333333333333	0
bin	-0.3	0
bin	-0.26666666666667	0
bin	-0.23333333333333	0
bin	-0.2	0
bin	-0.16666666666667	0
bin	-0.13333333333333	0
bin	-0.1	0
bin	-0.066666666666667	0
bin	-0.033333333333333	0
bin	0	0
bin	0.033333333333333	0
bin	0.066666666666667	0
bin	0.1	0
bin	0.13333333333333	0
bin	0.16666666666667	0
bin	0.2	0
bin	0.23333333333333	0
bin	0.26666666666667	0
bin	0.3	0
bin	0.33333333333333	0
bin	0.36666666666667	0
bin	0.4	0
bin	0.43333333333333	0
bin	0.46666666666667	0
bin	0.5	0
statistic BasicTopology.peer[6].bitTorrentApp.swarmManager 	ContentManager_25_percentDownloadMarkTime:histogram
field count 0
field mean 0
field stddev -nan
field sum 0
field sqrsum 0
field min 0
field max 0
attr title  "25% Download Time Ordinate, histogram"
attr unit  s
bin	-INF	0
bin	-0.5	0
bin	-0.46666666666667	0
bin	-0.43333333333333	0
bin	-0.4	0
bin	-0.36666666666667	0
bin	-0.33333333333333	0
bin	-0.3	0
bin	-0.26666666666667	0
bin	-0.23333333333333	0
bin	-0.2	0
bin	-0.16666666666667	0
bin	-0.13333333333333	0
bin	-0.1	0
bin	-0.066666666666667	0
bin	-0.033333333333333	0
bin	0	0
bin	0.033333333333333	0
bin	0.066666666666667	0
bin	0.1	0
bin	0.13333333333333	0
bin	0.16666666666667	0
bin	0.2	0
bin	0.23333333333333	0
bin	0.26666666666667	0
bin	0.3	0
bin	0.33333333333333	0
bin	0.36666666666667	0
bin	0.4	0
bin	0.43333333333333	0
bin	0.46666666666667	0
bin	0.5	0
scalar BasicTopology.peer[6].bitTorrentApp.swarmManager 	SwarmManager_EnteredSwarm:last 	-nan
attr title  "Enter Swarm Instant, last"
scalar BasicTopology.peer[6].bitTorrentApp.bitTorrentClient.contentManager_26 	ContentManager_75_percentDownloadMarkTime:last 	-nan
attr title  "75% Download Time Ordinate, last"
attr unit  s
scalar BasicTopology.peer[6].bitTorrentApp.bitTorrentClient.contentManager_26 	ContentManager_50_percentDownloadMarkTime:last 	-nan
attr title  "50% Download Time Ordinate, last"
attr unit  s
scalar BasicTopology.peer[6].bitTorrentApp.bitTorrentClient.contentManager_26 	ContentManager_25_percentDownloadMarkTime:last 	-nan
attr title  "25% Download Time Ordinate, last"
attr unit  s
statistic BasicTopology.peer[6].bitTorrentApp.bitTorrentClient 	"Piece processing time histogram"
field count 2936
field mean 0.0073639305177112
field stddev 0.0099766190078884
field sum 21.6205
field sqrsum 0.451341
field min 0
field max 0.102482
bin	-INF	0
bin	0	936
bin	0.000909091	352
bin	0.001818182	155
bin	0.002727273	108
bin	0.003636364	126
bin	0.004545455	111
bin	0.005454546	58
bin	0.006363637	55
bin	0.007272728	27
bin	0.008181819	55
bin	0.00909091	55
bin	0.010000001	85
bin	0.010909092	81
bin	0.011818183	66
bin	0.012727274	70
bin	0.013636365	71
bin	0.014545456	54
bin	0.015454547	41
bin	0.016363638	49
bin	0.017272729	44
bin	0.01818182	40
bin	0.019090911	33
bin	0.020000002	31
bin	0.020909093	22
bin	0.021818184	27
bin	0.022727275	16
bin	0.023636366	16
bin	0.024545457	14
bin	0.025454548	15
bin	0.026363639	9
bin	0.02727273	11
bin	0.028181821	11
bin	0.029090912	5
bin	0.030000003	9
bin	0.030909094	9
bin	0.031818185	3
bin	0.032727276	5
bin	0.033636367	4
bin	0.034545458	4
bin	0.035454549	4
bin	0.03636364	1
bin	0.037272731	2
bin	0.038181822	4
bin	0.039090913	3
bin	0.040000004	2
bin	0.040909095	3
bin	0.041818186	3
bin	0.042727277	3
bin	0.043636368	0
bin	0.044545459	0
bin	0.04545455	2
bin	0.046363641	1
bin	0.047272732	0
bin	0.048181823	1
bin	0.049090914	2
bin	0.05	22
scalar BasicTopology.peer[7].networkLayer.arp 	failedResolution:count 	1
attr title  "ARP failed resolutions, count"
scalar BasicTopology.peer[7].networkLayer.arp 	initiatedResolution:count 	11
attr title  "ARP initiated resolutions, count"
scalar BasicTopology.peer[7].networkLayer.arp 	sentReplies:count 	0
attr title  "ARP replies sent, count"
scalar BasicTopology.peer[7].networkLayer.arp 	sentReq:count 	14
attr title  "ARP request sent, count"
scalar BasicTopology.peer[7].wlan[0].mgmt 	dropPkByQueue:count 	470
attr interpolationmode  none
attr source  dropPkByQueue
attr title  "packets dropped by queue, count"
scalar BasicTopology.peer[7].wlan[0].mgmt 	dropPkByQueue:sum(packetBytes) 	97272
attr interpolationmode  none
attr source  dropPkByQueue
attr title  "packets dropped by queue, sum(packetBytes)"
scalar BasicTopology.peer[7].wlan[0].mgmt 	dataQueueLen:max 	10
attr interpolationmode  sample-hold
attr title  "data queue length, max"
scalar BasicTopology.peer[7].wlan[0].mgmt 	dataQueueLen:timeavg 	0.082047987207233
attr interpolationmode  sample-hold
attr title  "data queue length, timeavg"
scalar BasicTopology.peer[7].wlan[0].mac 	"number of received packets" 	45836
scalar BasicTopology.peer[7].wlan[0].mac 	"number of collisions" 	36011
scalar BasicTopology.peer[7].wlan[0].mac 	"number of internal collisions" 	0
scalar BasicTopology.peer[7].wlan[0].mac 	"number of retry for AC 0" 	19604
scalar BasicTopology.peer[7].wlan[0].mac 	"sent and receive bites" 	117300616
scalar BasicTopology.peer[7].wlan[0].mac 	"sent packet within AC 0" 	45901
scalar BasicTopology.peer[7].wlan[0].mac 	"sent in TXOP " 	0
scalar BasicTopology.peer[7].wlan[0].mac 	"sentWithoutRetry AC 0" 	35113
scalar BasicTopology.peer[7].wlan[0].mac 	"numGivenUp AC 0" 	105
scalar BasicTopology.peer[7].wlan[0].mac 	"numDropped AC 0" 	0
scalar BasicTopology.peer[7].wlan[0].radio 	lossRate:min 	0
attr interpolationmode  backward-sample-hold
attr title  "packet loss rate, min"
scalar BasicTopology.peer[7].wlan[0].radio 	lossRate:max 	0.46
attr interpolationmode  backward-sample-hold
attr title  "packet loss rate, max"
scalar BasicTopology.peer[7].wlan[0].radio 	lossRate:timeavg 	0.038432771571638
attr interpolationmode  backward-sample-hold
attr title  "packet loss rate, timeavg"
scalar BasicTopology.peer[7].wlan[0].radio 	radioState:count 	2472206
attr interpolationmode  sample-hold
attr title  "radio state (enum), count"
statistic BasicTopology.peer[7].wlan[0].radio 	channelNo:histogram
field count 0
field mean 0
field stddev -nan
field sum 0
field sqrsum 0
field min 0
field max 0
attr interpolationmode  sample-hold
attr title  "channel no, histogram"
bin	-INF	0
bin	-0.5	0
bin	-0.46666666666667	0
bin	-0.43333333333333	0
bin	-0.4	0
bin	-0.36666666666667	0
bin	-0.33333333333333	0
bin	-0.3	0
bin	-0.26666666666667	0
bin	-0.23333333333333	0
bin	-0.2	0
bin	-0.16666666666667	0
bin	-0.13333333333333	0
bin	-0.1	0
bin	-0.066666666666667	0
bin	-0.033333333333333	0
bin	0	0
bin	0.033333333333333	0
bin	0.066666666666667	0
bin	0.1	0
bin	0.13333333333333	0
bin	0.16666666666667	0
bin	0.2	0
bin	0.23333333333333	0
bin	0.26666666666667	0
bin	0.3	0
bin	0.33333333333333	0
bin	0.36666666666667	0
bin	0.4	0
bin	0.43333333333333	0
bin	0.46666666666667	0
bin	0.5	0
scalar BasicTopology.peer[7].wlan[0].radio 	bitrate:min 	-nan
attr interpolationmode  sample-hold
attr title  "tx bitrate, min"
attr unit  bps
scalar BasicTopology.peer[7].wlan[0].radio 	bitrate:max 	-nan
attr interpolationmode  sample-hold
attr title  "tx bitrate, max"
attr unit  bps
scalar BasicTopology.peer[7].wlan[0].radio 	bitrate:timeavg 	-nan
attr interpolationmode  sample-hold
attr title  "tx bitrate, timeavg"
attr unit  bps
statistic BasicTopology.peer[7].bitTorrentApp.swarmManager 	ContentManager_PieceDownloadTime:histogram
field count 0
field mean 0
field stddev -nan
field sum 0
field sqrsum 0
field min 0
field max 0
attr title  "Swarm Piece Download Time, histogram"
bin	-INF	0
bin	-0.5	0
bin	-0.46666666666667	0
bin	-0.43333333333333	0
bin	-0.4	0
bin	-0.36666666666667	0
bin	-0.33333333333333	0
bin	-0.3	0
bin	-0.26666666666667	0
bin	-0.23333333333333	0
bin	-0.2	0
bin	-0.16666666666667	0
bin	-0.13333333333333	0
bin	-0.1	0
bin	-0.066666666666667	0
bin	-0.033333333333333	0
bin	0	0
bin	0.033333333333333	0
bin	0.066666666666667	0
bin	0.1	0
bin	0.13333333333333	0
bin	0.16666666666667	0
bin	0.2	0
bin	0.23333333333333	0
bin	0.26666666666667	0
bin	0.3	0
bin	0.33333333333333	0
bin	0.36666666666667	0
bin	0.4	0
bin	0.43333333333333	0
bin	0.46666666666667	0
bin	0.5	0
statistic BasicTopology.peer[7].bitTorrentApp.swarmManager 	ContentManager_100_percentDownloadMarkTime:histogram
field count 0
field mean 0
field stddev -nan
field sum 0
field sqrsum 0
field min 0
field max 0
attr title  "100% Download Time Ordinate, histogram"
attr unit  s
bin	-INF	0
bin	-0.5	0
bin	-0.46666666666667	0
bin	-0.43333333333333	0
bin	-0.4	0
bin	-0.36666666666667	0
bin	-0.33333333333333	0
bin	-0.3	0
bin	-0.26666666666667	0
bin	-0.23333333333333	0
bin	-0.2	0
bin	-0.16666666666667	0
bin	-0.13333333333333	0
bin	-0.1	0
bin	-0.066666666666667	0
bin	-0.033333333333333	0
bin	0	0
bin	0.033333333333333	0
bin	0.066666666666667	0
bin	0.1	0
bin	0.13333333333333	0
bin	0.16666666666667	0
bin	0.2	0
bin	0.23333333333333	0
bin	0.26666666666667	0
bin	0.3	0
bin	0.33333333333333	0
bin	0.36666666666667	0
bin	0.4	0
bin	0.43333333333333	0
bin	0.46666666666667	0
bin	0.5	0
statistic BasicTopology.peer[7].bitTorrentApp.swarmManager 	ContentManager_75_percentDownloadMarkTime:histogram
field count 0
field mean 0
field stddev -nan
field sum 0
field sqrsum 0
field min 0
field max 0
attr title  "75% Download Time Ordinate, histogram"
attr unit  s
bin	-INF	0
bin	-0.5	0
bin	-0.46666666666667	0
bin	-0.43333333333333	0
bin	-0.4	0
bin	-0.36666666666667	0
bin	-0.33333333333333	0
bin	-0.3	0
bin	-0.26666666666667	0
bin	-0.23333333333333	0
bin	-0.2	0
bin	-0.16666666666667	0
bin	-0.13333333333333	0
bin	-0.1	0
bin	-0.066666666666667	0
bin	-0.033333333333333	0
bin	0	0
bin	0.033333333333333	0
bin	0.066666666666667	0
bin	0.1	0
bin	0.13333333333333	0
bin	0.16666666666667	0
bin	0.2	0
bin	0.23333333333333	0
bin	0.26666666666667	0
bin	0.3	0
bin	0.33333333333333	0
bin	0.36666666666667	0
bin	0.4	0
bin	0.43333333333333	0
bin	0.46666666666667	0
bin	0.5	0
statistic BasicTopology.peer[7].bitTorrentApp.swarmManager 	ContentManager_50_percentDownloadMarkTime:histogram
field count 0
field mean 0
field stddev -nan
field sum 0
field sqrsum 0
field min 0
field max 0
attr title  "50% Download Time Ordinate, histogram"
attr unit  s
bin	-INF	0
bin	-0.5	0
bin	-0.46666666666667	0
bin	-0.43333333333333	0
bin	-0.4	0
bin	-0.36666666666667	0
bin	-0.33333333333333	0
bin	-0.3	0
bin	-0.26666666666667	0
bin	-0.23333333333333	0
bin	-0.2	0
bin	-0.16666666666667	0
bin	-0.13333333333333	0
bin	-0.1	0
bin	-0.066666666666667	0
bin	-0.033333333333333	0
bin	0	0
bin	0.033333333333333	0
bin	0.066666666666667	0
bin	0.1	0
bin	0.13333333333333	0
bin	0.16666666666667	0
bin	0.2	0
bin	0.23333333333333	0
bin	0.26666666666667	0
bin	0.3	0
bin	0.33333333333333	0
bin	0.36666666666667	0
bin	0.4	0
bin	0.43333333333333	0
bin	0.46666666666667	0
bin	0.5	0
statistic BasicTopology.peer[7].bitTorrentApp.swarmManager 	ContentManager_25_percentDownloadMarkTime:histogram
field count 0
field mean 0
field stddev -nan
field sum 0
field sqrsum 0
field min 0
field max 0
attr title  "25% Download Time Ordinate, histogram"
attr unit  s
bin	-INF	0
bin	-0.5	0
bin	-0.46666666666667	0
bin	-0.43333333333333	0
bin	-0.4	0
bin	-0.36666666666667	0
bin	-0.33333333333333	0
bin	-0.3	0
bin	-0.26666666666667	0
bin	-0.23333333333333	0
bin	-0.2	0
bin	-0.16666666666667	0
bin	-0.13333333333333	0
bin	-0.1	0
bin	-0.066666666666667	0
bin	-0.033333333333333	0
bin	0	0
bin	0.033333333333333	0
bin	0.066666666666667	0
bin	0.1	0
bin	0.13333333333333	0
bin	0.16666666666667	0
bin	0.2	0
bin	0.23333333333333	0
bin	0.26666666666667	0
bin	0.3	0
bin	0.33333333333333	0
bin	0.36666666666667	0
bin	0.4	0
bin	0.43333333333333	0
bin	0.46666666666667	0
bin	0.5	0
scalar BasicTopology.peer[7].bitTorrentApp.swarmManager 	SwarmManager_EnteredSwarm:last 	-nan
attr title  "Enter Swarm Instant, last"
scalar BasicTopology.peer[7].bitTorrentApp.bitTorrentClient.contentManager_26 	ContentManager_75_percentDownloadMarkTime:last 	-nan
attr title  "75% Download Time Ordinate, last"
attr unit  s
scalar BasicTopology.peer[7].bitTorrentApp.bitTorrentClient.contentManager_26 	ContentManager_50_percentDownloadMarkTime:last 	-nan
attr title  "50% Download Time Ordinate, last"
attr unit  s
scalar BasicTopology.peer[7].bitTorrentApp.bitTorrentClient.contentManager_26 	ContentManager_25_percentDownloadMarkTime:last 	-nan
attr title  "25% Download Time Ordinate, last"
attr unit  s
statistic BasicTopology.peer[7].bitTorrentApp.bitTorrentClient 	"Piece processing time histogram"
field count 2936
field mean 0.0073639305177112
field stddev 0.0099766190078884
field sum 21.6205
field sqrsum 0.451341
field min 0
field max 0.102482
bin	-INF	0
bin	0	936
bin	0.000909091	352
bin	0.001818182	155
bin	0.002727273	108
bin	0.003636364	126
bin	0.004545455	111
bin	0.005454546	58
bin	0.006363637	55
bin	0.007272728	27
bin	0.008181819	55
bin	0.00909091	55
bin	0.010000001	85
bin	0.010909092	81
bin	0.011818183	66
bin	0.012727274	70
bin	0.013636365	71
bin	0.014545456	54
bin	0.015454547	41
bin	0.016363638	49
bin	0.017272729	44
bin	0.01818182	40
bin	0.019090911	33
bin	0.020000002	31
bin	0.020909093	22
[...]
field sum 0
field sqrsum 0
field min 0
field max 0
attr title  "Swarm Piece Download Time, histogram"
bin	-INF	0
bin	-0.5	0
bin	-0.46666666666667	0
bin	-0.43333333333333	0
bin	-0.4	0
bin	-0.36666666666667	0
bin	-0.33333333333333	0
bin	-0.3	0
bin	-0.26666666666667	0
bin	-0.23333333333333	0
bin	-0.2	0
bin	-0.16666666666667	0
bin	-0.13333333333333	0
bin	-0.1	0
bin	-0.066666666666667	0
bin	-0.033333333333333	0
bin	0	0
bin	0.033333333333333	0
bin	0.066666666666667	0
bin	0.1	0
bin	0.13333333333333	0
bin	0.16666666666667	0
bin	0.2	0
bin	0.23333333333333	0
bin	0.26666666666667	0
bin	0.3	0
bin	0.33333333333333	0
bin	0.36666666666667	0
bin	0.4	0
bin	0.43333333333333	0
bin	0.46666666666667	0
bin	0.5	0
statistic BasicTopology.peer[23].bitTorrentApp.swarmManager 	ContentManager_100_percentDownloadMarkTime:histogram
field count 0
field mean 0
field stddev -nan
field sum 0
field sqrsum 0
field min 0
field max 0
attr title  "100% Download Time Ordinate, histogram"
attr unit  s
bin	-INF	0
bin	-0.5	0
bin	-0.46666666666667	0
bin	-0.43333333333333	0
bin	-0.4	0
bin	-0.36666666666667	0
bin	-0.33333333333333	0
bin	-0.3	0
bin	-0.26666666666667	0
bin	-0.23333333333333	0
bin	-0.2	0
bin	-0.16666666666667	0
bin	-0.13333333333333	0
bin	-0.1	0
bin	-0.066666666666667	0
bin	-0.033333333333333	0
bin	0	0
bin	0.033333333333333	0
bin	0.066666666666667	0
bin	0.1	0
bin	0.13333333333333	0
bin	0.16666666666667	0
bin	0.2	0
bin	0.23333333333333	0
bin	0.26666666666667	0
bin	0.3	0
bin	0.33333333333333	0
bin	0.36666666666667	0
bin	0.4	0
bin	0.43333333333333	0
bin	0.46666666666667	0
bin	0.5	0
statistic BasicTopology.peer[23].bitTorrentApp.swarmManager 	ContentManager_75_percentDownloadMarkTime:histogram
field count 0
field mean 0
field stddev -nan
field sum 0
field sqrsum 0
field min 0
field max 0
attr title  "75% Download Time Ordinate, histogram"
attr unit  s
bin	-INF	0
bin	-0.5	0
bin	-0.46666666666667	0
bin	-0.43333333333333	0
bin	-0.4	0
bin	-0.36666666666667	0
bin	-0.33333333333333	0
bin	-0.3	0
bin	-0.26666666666667	0
bin	-0.23333333333333	0
bin	-0.2	0
bin	-0.16666666666667	0
bin	-0.13333333333333	0
bin	-0.1	0
bin	-0.066666666666667	0
bin	-0.033333333333333	0
bin	0	0
bin	0.033333333333333	0
bin	0.066666666666667	0
bin	0.1	0
bin	0.13333333333333	0
bin	0.16666666666667	0
bin	0.2	0
bin	0.23333333333333	0
bin	0.26666666666667	0
bin	0.3	0
bin	0.33333333333333	0
bin	0.36666666666667	0
bin	0.4	0
bin	0.43333333333333	0
bin	0.46666666666667	0
bin	0.5	0
statistic BasicTopology.peer[23].bitTorrentApp.swarmManager 	ContentManager_50_percentDownloadMarkTime:histogram
field count 0
field mean 0
field stddev -nan
field sum 0
field sqrsum 0
field min 0
field max 0
attr title  "50% Download Time Ordinate, histogram"
attr unit  s
bin	-INF	0
bin	-0.5	0
bin	-0.46666666666667	0
bin	-0.43333333333333	0
bin	-0.4	0
bin	-0.36666666666667	0
bin	-0.33333333333333	0
bin	-0.3	0
bin	-0.26666666666667	0
bin	-0.23333333333333	0
bin	-0.2	0
bin	-0.16666666666667	0
bin	-0.13333333333333	0
bin	-0.1	0
bin	-0.066666666666667	0
bin	-0.033333333333333	0
bin	0	0
bin	0.033333333333333	0
bin	0.066666666666667	0
bin	0.1	0
bin	0.13333333333333	0
bin	0.16666666666667	0
bin	0.2	0
bin	0.23333333333333	0
bin	0.26666666666667	0
bin	0.3	0
bin	0.33333333333333	0
bin	0.36666666666667	0
bin	0.4	0
bin	0.43333333333333	0
bin	0.46666666666667	0
bin	0.5	0
statistic BasicTopology.peer[23].bitTorrentApp.swarmManager 	ContentManager_25_percentDownloadMarkTime:histogram
field count 0
field mean 0
field stddev -nan
field sum 0
field sqrsum 0
field min 0
field max 0
attr title  "25% Download Time Ordinate, histogram"
attr unit  s
bin	-INF	0
bin	-0.5	0
bin	-0.46666666666667	0
bin	-0.43333333333333	0
bin	-0.4	0
bin	-0.36666666666667	0
bin	-0.33333333333333	0
bin	-0.3	0
bin	-0.26666666666667	0
bin	-0.23333333333333	0
bin	-0.2	0
bin	-0.16666666666667	0
bin	-0.13333333333333	0
bin	-0.1	0
bin	-0.066666666666667	0
bin	-0.033333333333333	0
bin	0	0
bin	0.033333333333333	0
bin	0.066666666666667	0
bin	0.1	0
bin	0.13333333333333	0
bin	0.16666666666667	0
bin	0.2	0
bin	0.23333333333333	0
bin	0.26666666666667	0
bin	0.3	0
bin	0.33333333333333	0
bin	0.36666666666667	0
bin	0.4	0
bin	0.43333333333333	0
bin	0.46666666666667	0
bin	0.5	0
scalar BasicTopology.peer[23].bitTorrentApp.swarmManager 	SwarmManager_EnteredSwarm:last 	-nan
attr title  "Enter Swarm Instant, last"
scalar BasicTopology.peer[23].bitTorrentApp.bitTorrentClient.contentManager_26 	ContentManager_75_percentDownloadMarkTime:last 	-nan
attr title  "75% Download Time Ordinate, last"
attr unit  s
scalar BasicTopology.peer[23].bitTorrentApp.bitTorrentClient.contentManager_26 	ContentManager_50_percentDownloadMarkTime:last 	-nan
attr title  "50% Download Time Ordinate, last"
attr unit  s
scalar BasicTopology.peer[23].bitTorrentApp.bitTorrentClient.contentManager_26 	ContentManager_25_percentDownloadMarkTime:last 	-nan
attr title  "25% Download Time Ordinate, last"
attr unit  s
statistic BasicTopology.peer[23].bitTorrentApp.bitTorrentClient 	"Piece processing time histogram"
field count 2936
field mean 0.0073639305177112
field stddev 0.0099766190078884
field sum 21.6205
field sqrsum 0.451341
field min 0
field max 0.102482
bin	-INF	0
bin	0	936
bin	0.000909091	352
bin	0.001818182	155
bin	0.002727273	108
bin	0.003636364	126
bin	0.004545455	111
bin	0.005454546	58
bin	0.006363637	55
bin	0.007272728	27
bin	0.008181819	55
bin	0.00909091	55
bin	0.010000001	85
bin	0.010909092	81
bin	0.011818183	66
bin	0.012727274	70
bin	0.013636365	71
bin	0.014545456	54
bin	0.015454547	41
bin	0.016363638	49
bin	0.017272729	44
bin	0.01818182	40
bin	0.019090911	33
bin	0.020000002	31
bin	0.020909093	22
bin	0.021818184	27
bin	0.022727275	16
bin	0.023636366	16
bin	0.024545457	14
bin	0.025454548	15
bin	0.026363639	9
bin	0.02727273	11
bin	0.028181821	11
bin	0.029090912	5
bin	0.030000003	9
bin	0.030909094	9
bin	0.031818185	3
bin	0.032727276	5
bin	0.033636367	4
bin	0.034545458	4
bin	0.035454549	4
bin	0.03636364	1
bin	0.037272731	2
bin	0.038181822	4
bin	0.039090913	3
bin	0.040000004	2
bin	0.040909095	3
bin	0.041818186	3
bin	0.042727277	3
bin	0.043636368	0
bin	0.044545459	0
bin	0.04545455	2
bin	0.046363641	1
bin	0.047272732	0
bin	0.048181823	1
bin	0.049090914	2
bin	0.05	22
scalar BasicTopology.peer[24].networkLayer.arp 	failedResolution:count 	0
attr title  "ARP failed resolutions, count"
scalar BasicTopology.peer[24].networkLayer.arp 	initiatedResolution:count 	5
attr title  "ARP initiated resolutions, count"
scalar BasicTopology.peer[24].networkLayer.arp 	sentReplies:count 	0
attr title  "ARP replies sent, count"
scalar BasicTopology.peer[24].networkLayer.arp 	sentReq:count 	5
attr title  "ARP request sent, count"
scalar BasicTopology.peer[24].wlan[0].mgmt 	dropPkByQueue:count 	480
attr interpolationmode  none
attr source  dropPkByQueue
attr title  "packets dropped by queue, count"
scalar BasicTopology.peer[24].wlan[0].mgmt 	dropPkByQueue:sum(packetBytes) 	119059
attr interpolationmode  none
attr source  dropPkByQueue
attr title  "packets dropped by queue, sum(packetBytes)"
scalar BasicTopology.peer[24].wlan[0].mgmt 	dataQueueLen:max 	10
attr interpolationmode  sample-hold
attr title  "data queue length, max"
scalar BasicTopology.peer[24].wlan[0].mgmt 	dataQueueLen:timeavg 	0.22567044788118
attr interpolationmode  sample-hold
attr title  "data queue length, timeavg"
scalar BasicTopology.peer[24].wlan[0].mac 	"number of received packets" 	31630
scalar BasicTopology.peer[24].wlan[0].mac 	"number of collisions" 	36258
scalar BasicTopology.peer[24].wlan[0].mac 	"number of internal collisions" 	0
scalar BasicTopology.peer[24].wlan[0].mac 	"number of retry for AC 0" 	33529
scalar BasicTopology.peer[24].wlan[0].mac 	"sent and receive bites" 	75877200
scalar BasicTopology.peer[24].wlan[0].mac 	"sent packet within AC 0" 	31094
scalar BasicTopology.peer[24].wlan[0].mac 	"sent in TXOP " 	0
scalar BasicTopology.peer[24].wlan[0].mac 	"sentWithoutRetry AC 0" 	18358
scalar BasicTopology.peer[24].wlan[0].mac 	"numGivenUp AC 0" 	991
scalar BasicTopology.peer[24].wlan[0].mac 	"numDropped AC 0" 	0
scalar BasicTopology.peer[24].wlan[0].radio 	lossRate:min 	0
attr interpolationmode  backward-sample-hold
attr title  "packet loss rate, min"
scalar BasicTopology.peer[24].wlan[0].radio 	lossRate:max 	0.44
attr interpolationmode  backward-sample-hold
attr title  "packet loss rate, max"
scalar BasicTopology.peer[24].wlan[0].radio 	lossRate:timeavg 	0.035832325647847
attr interpolationmode  backward-sample-hold
attr title  "packet loss rate, timeavg"
scalar BasicTopology.peer[24].wlan[0].radio 	radioState:count 	2612710
attr interpolationmode  sample-hold
attr title  "radio state (enum), count"
statistic BasicTopology.peer[24].wlan[0].radio 	channelNo:histogram
field count 0
field mean 0
field stddev -nan
field sum 0
field sqrsum 0
field min 0
field max 0
attr interpolationmode  sample-hold
attr title  "channel no, histogram"
bin	-INF	0
bin	-0.5	0
bin	-0.46666666666667	0
bin	-0.43333333333333	0
bin	-0.4	0
bin	-0.36666666666667	0
bin	-0.33333333333333	0
bin	-0.3	0
bin	-0.26666666666667	0
bin	-0.23333333333333	0
bin	-0.2	0
bin	-0.16666666666667	0
bin	-0.13333333333333	0
bin	-0.1	0
bin	-0.066666666666667	0
bin	-0.033333333333333	0
bin	0	0
bin	0.033333333333333	0
bin	0.066666666666667	0
bin	0.1	0
bin	0.13333333333333	0
bin	0.16666666666667	0
bin	0.2	0
bin	0.23333333333333	0
bin	0.26666666666667	0
bin	0.3	0
bin	0.33333333333333	0
bin	0.36666666666667	0
bin	0.4	0
bin	0.43333333333333	0
bin	0.46666666666667	0
bin	0.5	0
scalar BasicTopology.peer[24].wlan[0].radio 	bitrate:min 	-nan
attr interpolationmode  sample-hold
attr title  "tx bitrate, min"
attr unit  bps
scalar BasicTopology.peer[24].wlan[0].radio 	bitrate:max 	-nan
attr interpolationmode  sample-hold
attr title  "tx bitrate, max"
attr unit  bps
scalar BasicTopology.peer[24].wlan[0].radio 	bitrate:timeavg 	-nan
attr interpolationmode  sample-hold
attr title  "tx bitrate, timeavg"
attr unit  bps
statistic BasicTopology.peer[24].bitTorrentApp.swarmManager 	ContentManager_PieceDownloadTime:histogram
field count 0
field mean 0
field stddev -nan
field sum 0
field sqrsum 0
field min 0
field max 0
attr title  "Swarm Piece Download Time, histogram"
bin	-INF	0
bin	-0.5	0
bin	-0.46666666666667	0
bin	-0.43333333333333	0
bin	-0.4	0
bin	-0.36666666666667	0
bin	-0.33333333333333	0
bin	-0.3	0
bin	-0.26666666666667	0
bin	-0.23333333333333	0
bin	-0.2	0
bin	-0.16666666666667	0
bin	-0.13333333333333	0
bin	-0.1	0
bin	-0.066666666666667	0
bin	-0.033333333333333	0
bin	0	0
bin	0.033333333333333	0
bin	0.066666666666667	0
bin	0.1	0
bin	0.13333333333333	0
bin	0.16666666666667	0
bin	0.2	0
bin	0.23333333333333	0
bin	0.26666666666667	0
bin	0.3	0
bin	0.33333333333333	0
bin	0.36666666666667	0
bin	0.4	0
bin	0.43333333333333	0
bin	0.46666666666667	0
bin	0.5	0
statistic BasicTopology.peer[24].bitTorrentApp.swarmManager 	ContentManager_100_percentDownloadMarkTime:histogram
field count 0
field mean 0
field stddev -nan
field sum 0
field sqrsum 0
field min 0
field max 0
attr title  "100% Download Time Ordinate, histogram"
attr unit  s
bin	-INF	0
bin	-0.5	0
bin	-0.46666666666667	0
bin	-0.43333333333333	0
bin	-0.4	0
bin	-0.36666666666667	0
bin	-0.33333333333333	0
bin	-0.3	0
bin	-0.26666666666667	0
bin	-0.23333333333333	0
bin	-0.2	0
bin	-0.16666666666667	0
bin	-0.13333333333333	0
bin	-0.1	0
bin	-0.066666666666667	0
bin	-0.033333333333333	0
bin	0	0
bin	0.033333333333333	0
bin	0.066666666666667	0
bin	0.1	0
bin	0.13333333333333	0
bin	0.16666666666667	0
bin	0.2	0
bin	0.23333333333333	0
bin	0.26666666666667	0
bin	0.3	0
bin	0.33333333333333	0
bin	0.36666666666667	0
bin	0.4	0
bin	0.43333333333333	0
bin	0.46666666666667	0
bin	0.5	0
statistic BasicTopology.peer[24].bitTorrentApp.swarmManager 	ContentManager_75_percentDownloadMarkTime:histogram
field count 0
field mean 0
field stddev -nan
field sum 0
field sqrsum 0
field min 0
field max 0
attr title  "75% Download Time Ordinate, histogram"
attr unit  s
bin	-INF	0
bin	-0.5	0
bin	-0.46666666666667	0
bin	-0.43333333333333	0
bin	-0.4	0
bin	-0.36666666666667	0
bin	-0.33333333333333	0
bin	-0.3	0
bin	-0.26666666666667	0
bin	-0.23333333333333	0
bin	-0.2	0
bin	-0.16666666666667	0
bin	-0.13333333333333	0
bin	-0.1	0
bin	-0.066666666666667	0
bin	-0.033333333333333	0
bin	0	0
bin	0.033333333333333	0
bin	0.066666666666667	0
bin	0.1	0
bin	0.13333333333333	0
bin	0.16666666666667	0
bin	0.2	0
bin	0.23333333333333	0
bin	0.26666666666667	0
bin	0.3	0
bin	0.33333333333333	0
bin	0.36666666666667	0
bin	0.4	0
bin	0.43333333333333	0
bin	0.46666666666667	0
bin	0.5	0
statistic BasicTopology.peer[24].bitTorrentApp.swarmManager 	ContentManager_50_percentDownloadMarkTime:histogram
field count 0
field mean 0
field stddev -nan
field sum 0
field sqrsum 0
field min 0
field max 0
attr title  "50% Download Time Ordinate, histogram"
attr unit  s
bin	-INF	0
bin	-0.5	0
bin	-0.46666666666667	0
bin	-0.43333333333333	0
bin	-0.4	0
bin	-0.36666666666667	0
bin	-0.33333333333333	0
bin	-0.3	0
bin	-0.26666666666667	0
bin	-0.23333333333333	0
bin	-0.2	0
bin	-0.16666666666667	0
bin	-0.13333333333333	0
bin	-0.1	0
bin	-0.066666666666667	0
bin	-0.033333333333333	0
bin	0	0
bin	0.033333333333333	0
bin	0.066666666666667	0
bin	0.1	0
bin	0.13333333333333	0
bin	0.16666666666667	0
bin	0.2	0
bin	0.23333333333333	0
bin	0.26666666666667	0
bin	0.3	0
bin	0.33333333333333	0
bin	0.36666666666667	0
bin	0.4	0
bin	0.43333333333333	0
bin	0.46666666666667	0
bin	0.5	0
statistic BasicTopology.peer[24].bitTorrentApp.swarmManager 	ContentManager_25_percentDownloadMarkTime:histogram
field count 0
field mean 0
field stddev -nan
field sum 0
field sqrsum 0
field min 0
field max 0
attr title  "25% Download Time Ordinate, histogram"
attr unit  s
bin	-INF	0
bin	-0.5	0
bin	-0.46666666666667	0
bin	-0.43333333333333	0
bin	-0.4	0
bin	-0.36666666666667	0
bin	-0.33333333333333	0
bin	-0.3	0
bin	-0.26666666666667	0
bin	-0.23333333333333	0
bin	-0.2	0
bin	-0.16666666666667	0
bin	-0.13333333333333	0
bin	-0.1	0
bin	-0.066666666666667	0
bin	-0.033333333333333	0
bin	0	0
bin	0.033333333333333	0
bin	0.066666666666667	0
bin	0.1	0
bin	0.13333333333333	0
bin	0.16666666666667	0
bin	0.2	0
bin	0.23333333333333	0
bin	0.26666666666667	0
bin	0.3	0
bin	0.33333333333333	0
bin	0.36666666666667	0
bin	0.4	0
bin	0.43333333333333	0
bin	0.46666666666667	0
bin	0.5	0
scalar BasicTopology.peer[24].bitTorrentApp.swarmManager 	SwarmManager_EnteredSwarm:last 	-nan
attr title  "Enter Swarm Instant, last"
scalar BasicTopology.peer[24].bitTorrentApp.bitTorrentClient.contentManager_26 	ContentManager_75_percentDownloadMarkTime:last 	-nan
attr title  "75% Download Time Ordinate, last"
attr unit  s
scalar BasicTopology.peer[24].bitTorrentApp.bitTorrentClient.contentManager_26 	ContentManager_50_percentDownloadMarkTime:last 	-nan
attr title  "50% Download Time Ordinate, last"
attr unit  s
scalar BasicTopology.peer[24].bitTorrentApp.bitTorrentClient.contentManager_26 	ContentManager_25_percentDownloadMarkTime:last 	-nan
attr title  "25% Download Time Ordinate, last"
attr unit  s
statistic BasicTopology.peer[24].bitTorrentApp.bitTorrentClient 	"Piece processing time histogram"
field count 2936
field mean 0.0073639305177112
field stddev 0.0099766190078884
field sum 21.6205
field sqrsum 0.451341
field min 0
field max 0.102482
bin	-INF	0
bin	0	936
bin	0.000909091	352
bin	0.001818182	155
bin	0.002727273	108
bin	0.003636364	126
bin	0.004545455	111
bin	0.005454546	58
bin	0.006363637	55
bin	0.007272728	27
bin	0.008181819	55
bin	0.00909091	55
bin	0.010000001	85
bin	0.010909092	81
bin	0.011818183	66
bin	0.012727274	70
bin	0.013636365	71
bin	0.014545456	54
bin	0.015454547	41
bin	0.016363638	49
bin	0.017272729	44
bin	0.01818182	40
bin	0.019090911	33
bin	0.020000002	31
bin	0.020909093	22
bin	0.021818184	27
bin	0.022727275	16
bin	0.023636366	16
bin	0.024545457	14
bin	0.025454548	15
bin	0.026363639	9
bin	0.02727273	11
bin	0.028181821	11
bin	0.029090912	5
bin	0.030000003	9
bin	0.030909094	9
bin	0.031818185	3
bin	0.032727276	5
bin	0.033636367	4
bin	0.034545458	4
bin	0.035454549	4
bin	0.03636364	1
bin	0.037272731	2
bin	0.038181822	4
bin	0.039090913	3
bin	0.040000004	2
bin	0.040909095	3
bin	0.041818186	3
bin	0.042727277	3
bin	0.043636368	0
bin	0.044545459	0
bin	0.04545455	2
bin	0.046363641	1
bin	0.047272732	0
bin	0.048181823	1
bin	0.049090914	2
bin	0.05	22
scalar BasicTopology.tracker.networkLayer.arp 	failedResolution:count 	0
attr title  "ARP failed resolutions, count"
scalar BasicTopology.tracker.networkLayer.arp 	initiatedResolution:count 	0
attr title  "ARP initiated resolutions, count"
scalar BasicTopology.tracker.networkLayer.arp 	sentReplies:count 	0
attr title  "ARP replies sent, count"
scalar BasicTopology.tracker.networkLayer.arp 	sentReq:count 	0
attr title  "ARP request sent, count"
scalar BasicTopology.tracker.wlan[0].mgmt 	dropPkByQueue:count 	0
attr interpolationmode  none
attr source  dropPkByQueue
attr title  "packets dropped by queue, count"
scalar BasicTopology.tracker.wlan[0].mgmt 	dropPkByQueue:sum(packetBytes) 	0
attr interpolationmode  none
attr source  dropPkByQueue
attr title  "packets dropped by queue, sum(packetBytes)"
scalar BasicTopology.tracker.wlan[0].mgmt 	dataQueueLen:max 	-nan
attr interpolationmode  sample-hold
attr title  "data queue length, max"
scalar BasicTopology.tracker.wlan[0].mgmt 	dataQueueLen:timeavg 	-nan
attr interpolationmode  sample-hold
attr title  "data queue length, timeavg"
scalar BasicTopology.tracker.wlan[0].mac 	"number of received packets" 	0
scalar BasicTopology.tracker.wlan[0].mac 	"number of collisions" 	0
scalar BasicTopology.tracker.wlan[0].mac 	"number of internal collisions" 	0
scalar BasicTopology.tracker.wlan[0].mac 	"number of retry for AC 0" 	0
scalar BasicTopology.tracker.wlan[0].mac 	"sent and receive bites" 	0
scalar BasicTopology.tracker.wlan[0].mac 	"sent packet within AC 0" 	0
scalar BasicTopology.tracker.wlan[0].mac 	"sent in TXOP " 	0
scalar BasicTopology.tracker.wlan[0].mac 	"sentWithoutRetry AC 0" 	0
scalar BasicTopology.tracker.wlan[0].mac 	"numGivenUp AC 0" 	0
scalar BasicTopology.tracker.wlan[0].mac 	"numDropped AC 0" 	0
scalar BasicTopology.tracker.wlan[0].radio 	lossRate:min 	-nan
attr interpolationmode  backward-sample-hold
attr title  "packet loss rate, min"
scalar BasicTopology.tracker.wlan[0].radio 	lossRate:max 	-nan
attr interpolationmode  backward-sample-hold
attr title  "packet loss rate, max"
scalar BasicTopology.tracker.wlan[0].radio 	lossRate:timeavg 	-nan
attr interpolationmode  backward-sample-hold
attr title  "packet loss rate, timeavg"
scalar BasicTopology.tracker.wlan[0].radio 	radioState:count 	0
attr interpolationmode  sample-hold
attr title  "radio state (enum), count"
statistic BasicTopology.tracker.wlan[0].radio 	channelNo:histogram
field count 0
field mean 0
field stddev -nan
field sum 0
field sqrsum 0
field min 0
field max 0
attr interpolationmode  sample-hold
attr title  "channel no, histogram"
bin	-INF	0
bin	-0.5	0
bin	-0.46666666666667	0
bin	-0.43333333333333	0
bin	-0.4	0
bin	-0.36666666666667	0
bin	-0.33333333333333	0
bin	-0.3	0
bin	-0.26666666666667	0
bin	-0.23333333333333	0
bin	-0.2	0
bin	-0.16666666666667	0
bin	-0.13333333333333	0
bin	-0.1	0
bin	-0.066666666666667	0
bin	-0.033333333333333	0
bin	0	0
bin	0.033333333333333	0
bin	0.066666666666667	0
bin	0.1	0
bin	0.13333333333333	0
bin	0.16666666666667	0
bin	0.2	0
bin	0.23333333333333	0
bin	0.26666666666667	0
bin	0.3	0
bin	0.33333333333333	0
bin	0.36666666666667	0
bin	0.4	0
bin	0.43333333333333	0
bin	0.46666666666667	0
bin	0.5	0
scalar BasicTopology.tracker.wlan[0].radio 	bitrate:min 	-nan
attr interpolationmode  sample-hold
attr title  "tx bitrate, min"
attr unit  bps
scalar BasicTopology.tracker.wlan[0].radio 	bitrate:max 	-nan
attr interpolationmode  sample-hold
attr title  "tx bitrate, max"
attr unit  bps
scalar BasicTopology.tracker.wlan[0].radio 	bitrate:timeavg 	-nan
attr interpolationmode  sample-hold
attr title  "tx bitrate, timeavg"
attr unit  bps
scalar BasicTopology 	PieceSent:count 	4855
attr source  BitTorrentClient_PieceSent
attr title  "Sum of Pieces sent, count"
