version 2
run Test-19-20200526-14:55:28-7182
attr configname Test
attr datetime 20200526-14:55:28
attr experiment "\"Simulation Test\""
attr inifile BasicConfig.ini
attr iterationvars ""
attr iterationvars2 $repetition=19
attr measurement "\"Peers: $peers, Rate: $rate\""
attr network BasicTopology
attr processid 7182
attr repetition 19
attr replication #19
attr resultdir results
attr runnumber 19
attr seedset 19

scalar BasicTopology.peer[0].networkLayer.arp 	failedResolution:count 	0
attr title  "ARP failed resolutions, count"
scalar BasicTopology.peer[0].networkLayer.arp 	initiatedResolution:count 	5
attr title  "ARP initiated resolutions, count"
scalar BasicTopology.peer[0].networkLayer.arp 	sentReplies:count 	0
attr title  "ARP replies sent, count"
scalar BasicTopology.peer[0].networkLayer.arp 	sentReq:count 	6
attr title  "ARP request sent, count"
scalar BasicTopology.peer[0].wlan[0].mgmt 	dropPkByQueue:count 	156
attr interpolationmode  none
attr source  dropPkByQueue
attr title  "packets dropped by queue, count"
scalar BasicTopology.peer[0].wlan[0].mgmt 	dropPkByQueue:sum(packetBytes) 	80832
attr interpolationmode  none
attr source  dropPkByQueue
attr title  "packets dropped by queue, sum(packetBytes)"
scalar BasicTopology.peer[0].wlan[0].mgmt 	dataQueueLen:max 	10
attr interpolationmode  sample-hold
attr title  "data queue length, max"
scalar BasicTopology.peer[0].wlan[0].mgmt 	dataQueueLen:timeavg 	0.12510170373406
attr interpolationmode  sample-hold
attr title  "data queue length, timeavg"
scalar BasicTopology.peer[0].wlan[0].mac 	"number of received packets" 	18378
scalar BasicTopology.peer[0].wlan[0].mac 	"number of collisions" 	4037
scalar BasicTopology.peer[0].wlan[0].mac 	"number of internal collisions" 	0
scalar BasicTopology.peer[0].wlan[0].mac 	"number of retry for AC 0" 	18858
scalar BasicTopology.peer[0].wlan[0].mac 	"sent and receive bites" 	80140696
scalar BasicTopology.peer[0].wlan[0].mac 	"sent packet within AC 0" 	19321
scalar BasicTopology.peer[0].wlan[0].mac 	"sent in TXOP " 	0
scalar BasicTopology.peer[0].wlan[0].mac 	"sentWithoutRetry AC 0" 	11091
scalar BasicTopology.peer[0].wlan[0].mac 	"numGivenUp AC 0" 	226
scalar BasicTopology.peer[0].wlan[0].mac 	"numDropped AC 0" 	0
scalar BasicTopology.peer[0].wlan[0].radio 	lossRate:min 	0
attr interpolationmode  backward-sample-hold
attr title  "packet loss rate, min"
scalar BasicTopology.peer[0].wlan[0].radio 	lossRate:max 	0.14
attr interpolationmode  backward-sample-hold
attr title  "packet loss rate, max"
scalar BasicTopology.peer[0].wlan[0].radio 	lossRate:timeavg 	0.0037737155707694
attr interpolationmode  backward-sample-hold
attr title  "packet loss rate, timeavg"
scalar BasicTopology.peer[0].wlan[0].radio 	radioState:count 	1475020
attr interpolationmode  sample-hold
attr title  "radio state (enum), count"
statistic BasicTopology.peer[0].wlan[0].radio 	channelNo:histogram
field count 0
field mean 0
field stddev -nan
field sum 0
field sqrsum 0
field min 0
field max 0
attr interpolationmode  sample-hold
attr title  "channel no, histogram"
bin	-INF	0
bin	-0.5	0
bin	-0.46666666666667	0
bin	-0.43333333333333	0
bin	-0.4	0
bin	-0.36666666666667	0
bin	-0.33333333333333	0
bin	-0.3	0
bin	-0.26666666666667	0
bin	-0.23333333333333	0
bin	-0.2	0
bin	-0.16666666666667	0
bin	-0.13333333333333	0
bin	-0.1	0
bin	-0.066666666666667	0
bin	-0.033333333333333	0
bin	0	0
bin	0.033333333333333	0
bin	0.066666666666667	0
bin	0.1	0
bin	0.13333333333333	0
bin	0.16666666666667	0
bin	0.2	0
bin	0.23333333333333	0
bin	0.26666666666667	0
bin	0.3	0
bin	0.33333333333333	0
bin	0.36666666666667	0
bin	0.4	0
bin	0.43333333333333	0
bin	0.46666666666667	0
bin	0.5	0
scalar BasicTopology.peer[0].wlan[0].radio 	bitrate:min 	-nan
attr interpolationmode  sample-hold
attr title  "tx bitrate, min"
attr unit  bps
scalar BasicTopology.peer[0].wlan[0].radio 	bitrate:max 	-nan
attr interpolationmode  sample-hold
attr title  "tx bitrate, max"
attr unit  bps
scalar BasicTopology.peer[0].wlan[0].radio 	bitrate:timeavg 	-nan
attr interpolationmode  sample-hold
attr title  "tx bitrate, timeavg"
attr unit  bps
statistic BasicTopology.peer[0].bitTorrentApp.swarmManager 	ContentManager_PieceDownloadTime:histogram
field count 0
field mean 0
field stddev -nan
field sum 0
field sqrsum 0
field min 0
field max 0
attr title  "Swarm Piece Download Time, histogram"
bin	-INF	0
bin	-0.5	0
bin	-0.46666666666667	0
bin	-0.43333333333333	0
bin	-0.4	0
bin	-0.36666666666667	0
bin	-0.33333333333333	0
bin	-0.3	0
bin	-0.26666666666667	0
bin	-0.23333333333333	0
bin	-0.2	0
bin	-0.16666666666667	0
bin	-0.13333333333333	0
bin	-0.1	0
bin	-0.066666666666667	0
bin	-0.033333333333333	0
bin	0	0
bin	0.033333333333333	0
bin	0.066666666666667	0
bin	0.1	0
bin	0.13333333333333	0
bin	0.16666666666667	0
bin	0.2	0
bin	0.23333333333333	0
bin	0.26666666666667	0
bin	0.3	0
bin	0.33333333333333	0
bin	0.36666666666667	0
bin	0.4	0
bin	0.43333333333333	0
bin	0.46666666666667	0
bin	0.5	0
statistic BasicTopology.peer[0].bitTorrentApp.swarmManager 	ContentManager_100_percentDownloadMarkTime:histogram
field count 0
field mean 0
field stddev -nan
field sum 0
field sqrsum 0
field min 0
field max 0
attr title  "100% Download Time Ordinate, histogram"
attr unit  s
bin	-INF	0
bin	-0.5	0
bin	-0.46666666666667	0
bin	-0.43333333333333	0
bin	-0.4	0
bin	-0.36666666666667	0
bin	-0.33333333333333	0
bin	-0.3	0
bin	-0.26666666666667	0
bin	-0.23333333333333	0
bin	-0.2	0
bin	-0.16666666666667	0
bin	-0.13333333333333	0
bin	-0.1	0
bin	-0.066666666666667	0
bin	-0.033333333333333	0
bin	0	0
bin	0.033333333333333	0
bin	0.066666666666667	0
bin	0.1	0
bin	0.13333333333333	0
bin	0.16666666666667	0
bin	0.2	0
bin	0.23333333333333	0
bin	0.26666666666667	0
bin	0.3	0
bin	0.33333333333333	0
bin	0.36666666666667	0
bin	0.4	0
bin	0.43333333333333	0
bin	0.46666666666667	0
bin	0.5	0
statistic BasicTopology.peer[0].bitTorrentApp.swarmManager 	ContentManager_75_percentDownloadMarkTime:histogram
field count 0
field mean 0
field stddev -nan
field sum 0
field sqrsum 0
field min 0
field max 0
attr title  "75% Download Time Ordinate, histogram"
attr unit  s
bin	-INF	0
bin	-0.5	0
bin	-0.46666666666667	0
bin	-0.43333333333333	0
bin	-0.4	0
bin	-0.36666666666667	0
bin	-0.33333333333333	0
bin	-0.3	0
bin	-0.26666666666667	0
bin	-0.23333333333333	0
bin	-0.2	0
bin	-0.16666666666667	0
bin	-0.13333333333333	0
bin	-0.1	0
bin	-0.066666666666667	0
bin	-0.033333333333333	0
bin	0	0
bin	0.033333333333333	0
bin	0.066666666666667	0
bin	0.1	0
bin	0.13333333333333	0
bin	0.16666666666667	0
bin	0.2	0
bin	0.23333333333333	0
bin	0.26666666666667	0
bin	0.3	0
bin	0.33333333333333	0
bin	0.36666666666667	0
bin	0.4	0
bin	0.43333333333333	0
bin	0.46666666666667	0
bin	0.5	0
statistic BasicTopology.peer[0].bitTorrentApp.swarmManager 	ContentManager_50_percentDownloadMarkTime:histogram
field count 0
field mean 0
field stddev -nan
field sum 0
field sqrsum 0
field min 0
field max 0
attr title  "50% Download Time Ordinate, histogram"
attr unit  s
bin	-INF	0
bin	-0.5	0
bin	-0.46666666666667	0
bin	-0.43333333333333	0
bin	-0.4	0
bin	-0.36666666666667	0
bin	-0.33333333333333	0
bin	-0.3	0
bin	-0.26666666666667	0
bin	-0.23333333333333	0
bin	-0.2	0
bin	-0.16666666666667	0
bin	-0.13333333333333	0
bin	-0.1	0
bin	-0.066666666666667	0
bin	-0.033333333333333	0
bin	0	0
bin	0.033333333333333	0
bin	0.066666666666667	0
bin	0.1	0
bin	0.13333333333333	0
bin	0.16666666666667	0
bin	0.2	0
bin	0.23333333333333	0
bin	0.26666666666667	0
bin	0.3	0
bin	0.33333333333333	0
bin	0.36666666666667	0
bin	0.4	0
bin	0.43333333333333	0
bin	0.46666666666667	0
bin	0.5	0
statistic BasicTopology.peer[0].bitTorrentApp.swarmManager 	ContentManager_25_percentDownloadMarkTime:histogram
field count 0
field mean 0
field stddev -nan
field sum 0
field sqrsum 0
field min 0
field max 0
attr title  "25% Download Time Ordinate, histogram"
attr unit  s
bin	-INF	0
bin	-0.5	0
bin	-0.46666666666667	0
bin	-0.43333333333333	0
bin	-0.4	0
bin	-0.36666666666667	0
bin	-0.33333333333333	0
bin	-0.3	0
bin	-0.26666666666667	0
bin	-0.23333333333333	0
bin	-0.2	0
bin	-0.16666666666667	0
bin	-0.13333333333333	0
bin	-0.1	0
bin	-0.066666666666667	0
bin	-0.033333333333333	0
bin	0	0
bin	0.033333333333333	0
bin	0.066666666666667	0
bin	0.1	0
bin	0.13333333333333	0
bin	0.16666666666667	0
bin	0.2	0
bin	0.23333333333333	0
bin	0.26666666666667	0
bin	0.3	0
bin	0.33333333333333	0
bin	0.36666666666667	0
bin	0.4	0
bin	0.43333333333333	0
bin	0.46666666666667	0
bin	0.5	0
scalar BasicTopology.peer[0].bitTorrentApp.swarmManager 	SwarmManager_EnteredSwarm:last 	-nan
attr title  "Enter Swarm Instant, last"
scalar BasicTopology.peer[0].bitTorrentApp.bitTorrentClient.contentManager_26 	ContentManager_75_percentDownloadMarkTime:last 	-nan
attr title  "75% Download Time Ordinate, last"
attr unit  s
scalar BasicTopology.peer[0].bitTorrentApp.bitTorrentClient.contentManager_26 	ContentManager_50_percentDownloadMarkTime:last 	-nan
attr title  "50% Download Time Ordinate, last"
attr unit  s
scalar BasicTopology.peer[0].bitTorrentApp.bitTorrentClient.contentManager_26 	ContentManager_25_percentDownloadMarkTime:last 	-nan
attr title  "25% Download Time Ordinate, last"
attr unit  s
statistic BasicTopology.peer[0].bitTorrentApp.bitTorrentClient 	"Piece processing time histogram"
field count 2936
field mean 0.0073639305177112
field stddev 0.0099766190078884
field sum 21.6205
field sqrsum 0.451341
field min 0
field max 0.102482
bin	-INF	0
bin	0	936
bin	0.000909091	352
bin	0.001818182	155
bin	0.002727273	108
bin	0.003636364	126
bin	0.004545455	111
bin	0.005454546	58
bin	0.006363637	55
bin	0.007272728	27
bin	0.008181819	55
bin	0.00909091	55
bin	0.010000001	85
bin	0.010909092	81
bin	0.011818183	66
bin	0.012727274	70
bin	0.013636365	71
bin	0.014545456	54
bin	0.015454547	41
bin	0.016363638	49
bin	0.017272729	44
bin	0.01818182	40
bin	0.019090911	33
bin	0.020000002	31
bin	0.020909093	22
bin	0.021818184	27
bin	0.022727275	16
bin	0.023636366	16
bin	0.024545457	14
bin	0.025454548	15
bin	0.026363639	9
bin	0.02727273	11
bin	0.028181821	11
bin	0.029090912	5
bin	0.030000003	9
bin	0.030909094	9
bin	0.031818185	3
bin	0.032727276	5
bin	0.033636367	4
bin	0.034545458	4
bin	0.035454549	4
bin	0.03636364	1
bin	0.037272731	2
bin	0.038181822	4
bin	0.039090913	3
bin	0.040000004	2
bin	0.040909095	3
bin	0.041818186	3
bin	0.042727277	3
bin	0.043636368	0
bin	0.044545459	0
bin	0.04545455	2
bin	0.046363641	1
bin	0.047272732	0
bin	0.048181823	1
bin	0.049090914	2
bin	0.05	22
scalar BasicTopology.peer[1].networkLayer.arp 	failedResolution:count 	0
attr title  "ARP failed resolutions, count"
scalar BasicTopology.peer[1].networkLayer.arp 	initiatedResolution:count 	9
attr title  "ARP initiated resolutions, count"
scalar BasicTopology.peer[1].networkLayer.arp 	sentReplies:count 	0
attr title  "ARP replies sent, count"
scalar BasicTopology.peer[1].networkLayer.arp 	sentReq:count 	11
attr title  "ARP request sent, count"
scalar BasicTopology.peer[1].wlan[0].mgmt 	dropPkByQueue:count 	302
attr interpolationmode  none
attr source  dropPkByQueue
attr title  "packets dropped by queue, count"
scalar BasicTopology.peer[1].wlan[0].mgmt 	dropPkByQueue:sum(packetBytes) 	64499
attr interpolationmode  none
attr source  dropPkByQueue
attr title  "packets dropped by queue, sum(packetBytes)"
scalar BasicTopology.peer[1].wlan[0].mgmt 	dataQueueLen:max 	10
attr interpolationmode  sample-hold
attr title  "data queue length, max"
scalar BasicTopology.peer[1].wlan[0].mgmt 	dataQueueLen:timeavg 	0.16107082563263
attr interpolationmode  sample-hold
attr title  "data queue length, timeavg"
scalar BasicTopology.peer[1].wlan[0].mac 	"number of received packets" 	29689
scalar BasicTopology.peer[1].wlan[0].mac 	"number of collisions" 	50125
scalar BasicTopology.peer[1].wlan[0].mac 	"number of internal collisions" 	0
scalar BasicTopology.peer[1].wlan[0].mac 	"number of retry for AC 0" 	22878
scalar BasicTopology.peer[1].wlan[0].mac 	"sent and receive bites" 	75723800
scalar BasicTopology.peer[1].wlan[0].mac 	"sent packet within AC 0" 	30147
scalar BasicTopology.peer[1].wlan[0].mac 	"sent in TXOP " 	0
scalar BasicTopology.peer[1].wlan[0].mac 	"sentWithoutRetry AC 0" 	20273
scalar BasicTopology.peer[1].wlan[0].mac 	"numGivenUp AC 0" 	558
scalar BasicTopology.peer[1].wlan[0].mac 	"numDropped AC 0" 	0
scalar BasicTopology.peer[1].wlan[0].radio 	lossRate:min 	0
attr interpolationmode  backward-sample-hold
attr title  "packet loss rate, min"
scalar BasicTopology.peer[1].wlan[0].radio 	lossRate:max 	0.74
attr interpolationmode  backward-sample-hold
attr title  "packet loss rate, max"
scalar BasicTopology.peer[1].wlan[0].radio 	lossRate:timeavg 	0.039737484515234
attr interpolationmode  backward-sample-hold
attr title  "packet loss rate, timeavg"
scalar BasicTopology.peer[1].wlan[0].radio 	radioState:count 	2449178
attr interpolationmode  sample-hold
attr title  "radio state (enum), count"
statistic BasicTopology.peer[1].wlan[0].radio 	channelNo:histogram
field count 0
field mean 0
field stddev -nan
field sum 0
field sqrsum 0
field min 0
field max 0
attr interpolationmode  sample-hold
attr title  "channel no, histogram"
bin	-INF	0
bin	-0.5	0
bin	-0.46666666666667	0
bin	-0.43333333333333	0
bin	-0.4	0
bin	-0.36666666666667	0
bin	-0.33333333333333	0
bin	-0.3	0
bin	-0.26666666666667	0
bin	-0.23333333333333	0
bin	-0.2	0
bin	-0.16666666666667	0
bin	-0.13333333333333	0
bin	-0.1	0
bin	-0.066666666666667	0
bin	-0.033333333333333	0
bin	0	0
bin	0.033333333333333	0
bin	0.066666666666667	0
bin	0.1	0
bin	0.13333333333333	0
bin	0.16666666666667	0
bin	0.2	0
bin	0.23333333333333	0
bin	0.26666666666667	0
bin	0.3	0
bin	0.33333333333333	0
bin	0.36666666666667	0
bin	0.4	0
bin	0.43333333333333	0
bin	0.46666666666667	0
bin	0.5	0
scalar BasicTopology.peer[1].wlan[0].radio 	bitrate:min 	-nan
attr interpolationmode  sample-hold
attr title  "tx bitrate, min"
attr unit  bps
scalar BasicTopology.peer[1].wlan[0].radio 	bitrate:max 	-nan
attr interpolationmode  sample-hold
attr title  "tx bitrate, max"
attr unit  bps
scalar BasicTopology.peer[1].wlan[0].radio 	bitrate:timeavg 	-nan
attr interpolationmode  sample-hold
attr title  "tx bitrate, timeavg"
attr unit  bps
statistic BasicTopology.peer[1].bitTorrentApp.swarmManager 	ContentManager_PieceDownloadTime:histogram
field count 0
field mean 0
field stddev -nan
field sum 0
field sqrsum 0
field min 0
field max 0
attr title  "Swarm Piece Download Time, histogram"
bin	-INF	0
bin	-0.5	0
bin	-0.46666666666667	0
bin	-0.43333333333333	0
bin	-0.4	0
bin	-0.36666666666667	0
bin	-0.33333333333333	0
bin	-0.3	0
bin	-0.26666666666667	0
bin	-0.23333333333333	0
bin	-0.2	0
bin	-0.16666666666667	0
bin	-0.13333333333333	0
bin	-0.1	0
bin	-0.066666666666667	0
bin	-0.033333333333333	0
bin	0	0
bin	0.033333333333333	0
bin	0.066666666666667	0
bin	0.1	0
bin	0.13333333333333	0
bin	0.16666666666667	0
bin	0.2	0
bin	0.23333333333333	0
bin	0.26666666666667	0
bin	0.3	0
bin	0.33333333333333	0
bin	0.36666666666667	0
bin	0.4	0
bin	0.43333333333333	0
bin	0.46666666666667	0
bin	0.5	0
statistic BasicTopology.peer[1].bitTorrentApp.swarmManager 	ContentManager_100_percentDownloadMarkTime:histogram
field count 0
field mean 0
field stddev -nan
field sum 0
field sqrsum 0
field min 0
field max 0
attr title  "100% Download Time Ordinate, histogram"
attr unit  s
bin	-INF	0
bin	-0.5	0
bin	-0.46666666666667	0
bin	-0.43333333333333	0
bin	-0.4	0
bin	-0.36666666666667	0
bin	-0.33333333333333	0
bin	-0.3	0
bin	-0.26666666666667	0
bin	-0.23333333333333	0
bin	-0.2	0
bin	-0.16666666666667	0
bin	-0.13333333333333	0
bin	-0.1	0
bin	-0.066666666666667	0
bin	-0.033333333333333	0
bin	0	0
bin	0.033333333333333	0
bin	0.066666666666667	0
bin	0.1	0
bin	0.13333333333333	0
bin	0.16666666666667	0
bin	0.2	0
bin	0.23333333333333	0
bin	0.26666666666667	0
bin	0.3	0
bin	0.33333333333333	0
bin	0.36666666666667	0
bin	0.4	0
bin	0.43333333333333	0
bin	0.46666666666667	0
bin	0.5	0
statistic BasicTopology.peer[1].bitTorrentApp.swarmManager 	ContentManager_75_percentDownloadMarkTime:histogram
field count 0
field mean 0
field stddev -nan
field sum 0
field sqrsum 0
field min 0
field max 0
attr title  "75% Download Time Ordinate, histogram"
attr unit  s
bin	-INF	0
bin	-0.5	0
bin	-0.46666666666667	0
bin	-0.43333333333333	0
bin	-0.4	0
bin	-0.36666666666667	0
bin	-0.33333333333333	0
bin	-0.3	0
bin	-0.26666666666667	0
bin	-0.23333333333333	0
bin	-0.2	0
bin	-0.16666666666667	0
bin	-0.13333333333333	0
bin	-0.1	0
bin	-0.066666666666667	0
bin	-0.033333333333333	0
bin	0	0
bin	0.033333333333333	0
bin	0.066666666666667	0
bin	0.1	0
bin	0.13333333333333	0
bin	0.16666666666667	0
bin	0.2	0
bin	0.23333333333333	0
bin	0.26666666666667	0
bin	0.3	0
bin	0.33333333333333	0
bin	0.36666666666667	0
bin	0.4	0
bin	0.43333333333333	0
bin	0.46666666666667	0
bin	0.5	0
statistic BasicTopology.peer[1].bitTorrentApp.swarmManager 	ContentManager_50_percentDownloadMarkTime:histogram
field count 0
field mean 0
field stddev -nan
field sum 0
field sqrsum 0
field min 0
field max 0
attr title  "50% Download Time Ordinate, histogram"
attr unit  s
bin	-INF	0
bin	-0.5	0
bin	-0.46666666666667	0
bin	-0.43333333333333	0
bin	-0.4	0
bin	-0.36666666666667	0
bin	-0.33333333333333	0
bin	-0.3	0
bin	-0.26666666666667	0
bin	-0.23333333333333	0
bin	-0.2	0
bin	-0.16666666666667	0
bin	-0.13333333333333	0
bin	-0.1	0
bin	-0.066666666666667	0
bin	-0.033333333333333	0
bin	0	0
bin	0.033333333333333	0
bin	0.066666666666667	0
bin	0.1	0
bin	0.13333333333333	0
bin	0.16666666666667	0
bin	0.2	0
bin	0.23333333333333	0
bin	0.26666666666667	0
bin	0.3	0
bin	0.33333333333333	0
bin	0.36666666666667	0
bin	0.4	0
bin	0.43333333333333	0
bin	0.46666666666667	0
bin	0.5	0
statistic BasicTopology.peer[1].bitTorrentApp.swarmManager 	ContentManager_25_percentDownloadMarkTime:histogram
field count 0
field mean 0
field stddev -nan
field sum 0
field sqrsum 0
field min 0
field max 0
attr title  "25% Download Time Ordinate, histogram"
attr unit  s
bin	-INF	0
bin	-0.5	0
bin	-0.46666666666667	0
bin	-0.43333333333333	0
bin	-0.4	0
bin	-0.36666666666667	0
bin	-0.33333333333333	0
bin	-0.3	0
bin	-0.26666666666667	0
bin	-0.23333333333333	0
bin	-0.2	0
bin	-0.16666666666667	0
bin	-0.13333333333333	0
bin	-0.1	0
bin	-0.066666666666667	0
bin	-0.033333333333333	0
bin	0	0
bin	0.033333333333333	0
bin	0.066666666666667	0
bin	0.1	0
bin	0.13333333333333	0
bin	0.16666666666667	0
bin	0.2	0
bin	0.23333333333333	0
bin	0.26666666666667	0
bin	0.3	0
bin	0.33333333333333	0
bin	0.36666666666667	0
bin	0.4	0
bin	0.43333333333333	0
bin	0.46666666666667	0
bin	0.5	0
scalar BasicTopology.peer[1].bitTorrentApp.swarmManager 	SwarmManager_EnteredSwarm:last 	-nan
attr title  "Enter Swarm Instant, last"
scalar BasicTopology.peer[1].bitTorrentApp.bitTorrentClient.contentManager_26 	ContentManager_75_percentDownloadMarkTime:last 	-nan
attr title  "75% Download Time Ordinate, last"
attr unit  s
scalar BasicTopology.peer[1].bitTorrentApp.bitTorrentClient.contentManager_26 	ContentManager_50_percentDownloadMarkTime:last 	-nan
attr title  "50% Download Time Ordinate, last"
attr unit  s
scalar BasicTopology.peer[1].bitTorrentApp.bitTorrentClient.contentManager_26 	ContentManager_25_percentDownloadMarkTime:last 	-nan
attr title  "25% Download Time Ordinate, last"
attr unit  s
statistic BasicTopology.peer[1].bitTorrentApp.bitTorrentClient 	"Piece processing time histogram"
field count 2936
field mean 0.0073639305177112
field stddev 0.0099766190078884
field sum 21.6205
field sqrsum 0.451341
field min 0
field max 0.102482
bin	-INF	0
bin	0	936
bin	0.000909091	352
bin	0.001818182	155
bin	0.002727273	108
bin	0.003636364	126
bin	0.004545455	111
bin	0.005454546	58
bin	0.006363637	55
bin	0.007272728	27
bin	0.008181819	55
bin	0.00909091	55
bin	0.010000001	85
bin	0.010909092	81
bin	0.011818183	66
bin	0.012727274	70
bin	0.013636365	71
bin	0.014545456	54
bin	0.015454547	41
bin	0.016363638	49
bin	0.017272729	44
bin	0.01818182	40
bin	0.019090911	33
bin	0.020000002	31
bin	0.020909093	22
bin	0.021818184	27
bin	0.022727275	16
bin	0.023636366	16
bin	0.024545457	14
bin	0.025454548	15
bin	0.026363639	9
bin	0.02727273	11
bin	0.028181821	11
bin	0.029090912	5
bin	0.030000003	9
bin	0.030909094	9
bin	0.031818185	3
bin	0.032727276	5
bin	0.033636367	4
bin	0.034545458	4
bin	0.035454549	4
bin	0.03636364	1
bin	0.037272731	2
bin	0.038181822	4
bin	0.039090913	3
bin	0.040000004	2
bin	0.040909095	3
bin	0.041818186	3
bin	0.042727277	3
bin	0.043636368	0
bin	0.044545459	0
bin	0.04545455	2
bin	0.046363641	1
bin	0.047272732	0
bin	0.048181823	1
bin	0.049090914	2
bin	0.05	22
scalar BasicTopology.peer[2].networkLayer.arp 	failedResolution:count 	0
attr title  "ARP failed resolutions, count"
scalar BasicTopology.peer[2].networkLayer.arp 	initiatedResolution:count 	6
attr title  "ARP initiated resolutions, count"
scalar BasicTopology.peer[2].networkLayer.arp 	sentReplies:count 	0
attr title  "ARP replies sent, count"
scalar BasicTopology.peer[2].networkLayer.arp 	sentReq:count 	6
attr title  "ARP request sent, count"
scalar BasicTopology.peer[2].wlan[0].mgmt 	dropPkByQueue:count 	638
attr interpolationmode  none
attr source  dropPkByQueue
attr title  "packets dropped by queue, count"
scalar BasicTopology.peer[2].wlan[0].mgmt 	dropPkByQueue:sum(packetBytes) 	140451
attr interpolationmode  none
attr source  dropPkByQueue
attr title  "packets dropped by queue, sum(packetBytes)"
scalar BasicTopology.peer[2].wlan[0].mgmt 	dataQueueLen:max 	10
attr interpolationmode  sample-hold
attr title  "data queue length, max"
scalar BasicTopology.peer[2].wlan[0].mgmt 	dataQueueLen:timeavg 	0.28363906952576
attr interpolationmode  sample-hold
attr title  "data queue length, timeavg"
scalar BasicTopology.peer[2].wlan[0].mac 	"number of received packets" 	42466
scalar BasicTopology.peer[2].wlan[0].mac 	"number of collisions" 	63616
scalar BasicTopology.peer[2].wlan[0].mac 	"number of internal collisions" 	0
scalar BasicTopology.peer[2].wlan[0].mac 	"number of retry for AC 0" 	33233
scalar BasicTopology.peer[2].wlan[0].mac 	"sent and receive bites" 	109563304
scalar BasicTopology.peer[2].wlan[0].mac 	"sent packet within AC 0" 	42337
scalar BasicTopology.peer[2].wlan[0].mac 	"sent in TXOP " 	0
scalar BasicTopology.peer[2].wlan[0].mac 	"sentWithoutRetry AC 0" 	27721
scalar BasicTopology.peer[2].wlan[0].mac 	"numGivenUp AC 0" 	731
scalar BasicTopology.peer[2].wlan[0].mac 	"numDropped AC 0" 	0
scalar BasicTopology.peer[2].wlan[0].radio 	lossRate:min 	0
attr interpolationmode  backward-sample-hold
attr title  "packet loss rate, min"
scalar BasicTopology.peer[2].wlan[0].radio 	lossRate:max 	0.62
attr interpolationmode  backward-sample-hold
attr title  "packet loss rate, max"
scalar BasicTopology.peer[2].wlan[0].radio 	lossRate:timeavg 	0.051578502499384
attr interpolationmode  backward-sample-hold
attr title  "packet loss rate, timeavg"
scalar BasicTopology.peer[2].wlan[0].radio 	radioState:count 	3161784
attr interpolationmode  sample-hold
attr title  "radio state (enum), count"
statistic BasicTopology.peer[2].wlan[0].radio 	channelNo:histogram
field count 0
field mean 0
field stddev -nan
field sum 0
field sqrsum 0
field min 0
field max 0
attr interpolationmode  sample-hold
attr title  "channel no, histogram"
bin	-INF	0
bin	-0.5	0
bin	-0.46666666666667	0
bin	-0.43333333333333	0
bin	-0.4	0
bin	-0.36666666666667	0
bin	-0.33333333333333	0
bin	-0.3	0
bin	-0.26666666666667	0
bin	-0.23333333333333	0
bin	-0.2	0
bin	-0.16666666666667	0
bin	-0.13333333333333	0
bin	-0.1	0
bin	-0.066666666666667	0
bin	-0.033333333333333	0
bin	0	0
bin	0.033333333333333	0
bin	0.066666666666667	0
bin	0.1	0
bin	0.13333333333333	0
bin	0.16666666666667	0
bin	0.2	0
bin	0.23333333333333	0
bin	0.26666666666667	0
bin	0.3	0
bin	0.33333333333333	0
bin	0.36666666666667	0
bin	0.4	0
bin	0.43333333333333	0
bin	0.46666666666667	0
bin	0.5	0
scalar BasicTopology.peer[2].wlan[0].radio 	bitrate:min 	-nan
attr interpolationmode  sample-hold
attr title  "tx bitrate, min"
attr unit  bps
scalar BasicTopology.peer[2].wlan[0].radio 	bitrate:max 	-nan
attr interpolationmode  sample-hold
attr title  "tx bitrate, max"
attr unit  bps
scalar BasicTopology.peer[2].wlan[0].radio 	bitrate:timeavg 	-nan
attr interpolationmode  sample-hold
attr title  "tx bitrate, timeavg"
attr unit  bps
statistic BasicTopology.peer[2].bitTorrentApp.swarmManager 	ContentManager_PieceDownloadTime:histogram
field count 0
field mean 0
field stddev -nan
field sum 0
field sqrsum 0
field min 0
field max 0
attr title  "Swarm Piece Download Time, histogram"
bin	-INF	0
bin	-0.5	0
bin	-0.46666666666667	0
bin	-0.43333333333333	0
bin	-0.4	0
bin	-0.36666666666667	0
bin	-0.33333333333333	0
bin	-0.3	0
bin	-0.26666666666667	0
bin	-0.23333333333333	0
bin	-0.2	0
bin	-0.16666666666667	0
bin	-0.13333333333333	0
bin	-0.1	0
bin	-0.066666666666667	0
bin	-0.033333333333333	0
bin	0	0
bin	0.033333333333333	0
bin	0.066666666666667	0
bin	0.1	0
bin	0.13333333333333	0
bin	0.16666666666667	0
bin	0.2	0
bin	0.23333333333333	0
bin	0.26666666666667	0
bin	0.3	0
bin	0.33333333333333	0
bin	0.36666666666667	0
bin	0.4	0
bin	0.43333333333333	0
bin	0.46666666666667	0
bin	0.5	0
statistic BasicTopology.peer[2].bitTorrentApp.swarmManager 	ContentManager_100_percentDownloadMarkTime:histogram
field count 0
field mean 0
field stddev -nan
field sum 0
field sqrsum 0
field min 0
field max 0
attr title  "100% Download Time Ordinate, histogram"
attr unit  s
bin	-INF	0
bin	-0.5	0
bin	-0.46666666666667	0
bin	-0.43333333333333	0
bin	-0.4	0
bin	-0.36666666666667	0
bin	-0.33333333333333	0
bin	-0.3	0
bin	-0.26666666666667	0
bin	-0.23333333333333	0
bin	-0.2	0
bin	-0.16666666666667	0
bin	-0.13333333333333	0
bin	-0.1	0
bin	-0.066666666666667	0
bin	-0.033333333333333	0
bin	0	0
bin	0.033333333333333	0
bin	0.066666666666667	0
bin	0.1	0
bin	0.13333333333333	0
bin	0.16666666666667	0
bin	0.2	0
bin	0.23333333333333	0
bin	0.26666666666667	0
bin	0.3	0
bin	0.33333333333333	0
bin	0.36666666666667	0
bin	0.4	0
bin	0.43333333333333	0
bin	0.46666666666667	0
bin	0.5	0
statistic BasicTopology.peer[2].bitTorrentApp.swarmManager 	ContentManager_75_percentDownloadMarkTime:histogram
field count 0
field mean 0
field stddev -nan
field sum 0
field sqrsum 0
field min 0
field max 0
attr title  "75% Download Time Ordinate, histogram"
attr unit  s
bin	-INF	0
bin	-0.5	0
bin	-0.46666666666667	0
bin	-0.43333333333333	0
bin	-0.4	0
bin	-0.36666666666667	0
bin	-0.33333333333333	0
bin	-0.3	0
bin	-0.26666666666667	0
bin	-0.23333333333333	0
bin	-0.2	0
bin	-0.16666666666667	0
bin	-0.13333333333333	0
bin	-0.1	0
bin	-0.066666666666667	0
bin	-0.033333333333333	0
bin	0	0
bin	0.033333333333333	0
bin	0.066666666666667	0
bin	0.1	0
bin	0.13333333333333	0
bin	0.16666666666667	0
bin	0.2	0
bin	0.23333333333333	0
bin	0.26666666666667	0
bin	0.3	0
bin	0.33333333333333	0
bin	0.36666666666667	0
bin	0.4	0
bin	0.43333333333333	0
bin	0.46666666666667	0
bin	0.5	0
statistic BasicTopology.peer[2].bitTorrentApp.swarmManager 	ContentManager_50_percentDownloadMarkTime:histogram
field count 0
field mean 0
field stddev -nan
field sum 0
field sqrsum 0
field min 0
field max 0
attr title  "50% Download Time Ordinate, histogram"
attr unit  s
bin	-INF	0
bin	-0.5	0
bin	-0.46666666666667	0
bin	-0.43333333333333	0
bin	-0.4	0
bin	-0.36666666666667	0
bin	-0.33333333333333	0
bin	-0.3	0
bin	-0.26666666666667	0
bin	-0.23333333333333	0
bin	-0.2	0
bin	-0.16666666666667	0
bin	-0.13333333333333	0
bin	-0.1	0
bin	-0.066666666666667	0
bin	-0.033333333333333	0
bin	0	0
bin	0.033333333333333	0
bin	0.066666666666667	0
bin	0.1	0
bin	0.13333333333333	0
bin	0.16666666666667	0
bin	0.2	0
bin	0.23333333333333	0
bin	0.26666666666667	0
bin	0.3	0
bin	0.33333333333333	0
bin	0.36666666666667	0
bin	0.4	0
bin	0.43333333333333	0
bin	0.46666666666667	0
bin	0.5	0
statistic BasicTopology.peer[2].bitTorrentApp.swarmManager 	ContentManager_25_percentDownloadMarkTime:histogram
field count 0
field mean 0
field stddev -nan
field sum 0
field sqrsum 0
field min 0
field max 0
attr title  "25% Download Time Ordinate, histogram"
attr unit  s
bin	-INF	0
bin	-0.5	0
bin	-0.46666666666667	0
bin	-0.43333333333333	0
bin	-0.4	0
bin	-0.36666666666667	0
bin	-0.33333333333333	0
bin	-0.3	0
bin	-0.26666666666667	0
bin	-0.23333333333333	0
bin	-0.2	0
bin	-0.16666666666667	0
bin	-0.13333333333333	0
bin	-0.1	0
bin	-0.066666666666667	0
bin	-0.033333333333333	0
bin	0	0
bin	0.033333333333333	0
bin	0.066666666666667	0
bin	0.1	0
bin	0.13333333333333	0
bin	0.16666666666667	0
bin	0.2	0
bin	0.23333333333333	0
bin	0.26666666666667	0
bin	0.3	0
bin	0.33333333333333	0
bin	0.36666666666667	0
bin	0.4	0
bin	0.43333333333333	0
bin	0.46666666666667	0
bin	0.5	0
scalar BasicTopology.peer[2].bitTorrentApp.swarmManager 	SwarmManager_EnteredSwarm:last 	-nan
attr title  "Enter Swarm Instant, last"
scalar BasicTopology.peer[2].bitTorrentApp.bitTorrentClient.contentManager_26 	ContentManager_75_percentDownloadMarkTime:last 	-nan
attr title  "75% Download Time Ordinate, last"
attr unit  s
scalar BasicTopology.peer[2].bitTorrentApp.bitTorrentClient.contentManager_26 	ContentManager_50_percentDownloadMarkTime:last 	-nan
attr title  "50% Download Time Ordinate, last"
attr unit  s
scalar BasicTopology.peer[2].bitTorrentApp.bitTorrentClient.contentManager_26 	ContentManager_25_percentDownloadMarkTime:last 	-nan
attr title  "25% Download Time Ordinate, last"
attr unit  s
statistic BasicTopology.peer[2].bitTorrentApp.bitTorrentClient 	"Piece processing time histogram"
field count 2936
field mean 0.0073639305177112
field stddev 0.0099766190078884
field sum 21.6205
field sqrsum 0.451341
field min 0
field max 0.102482
bin	-INF	0
bin	0	936
bin	0.000909091	352
bin	0.001818182	155
bin	0.002727273	108
bin	0.003636364	126
bin	0.004545455	111
bin	0.005454546	58
bin	0.006363637	55
bin	0.007272728	27
bin	0.008181819	55
bin	0.00909091	55
bin	0.010000001	85
bin	0.010909092	81
bin	0.011818183	66
bin	0.012727274	70
bin	0.013636365	71
bin	0.014545456	54
bin	0.015454547	41
bin	0.016363638	49
bin	0.017272729	44
bin	0.01818182	40
bin	0.019090911	33
bin	0.020000002	31
bin	0.020909093	22
bin	0.021818184	27
bin	0.022727275	16
bin	0.023636366	16
bin	0.024545457	14
bin	0.025454548	15
bin	0.026363639	9
bin	0.02727273	11
bin	0.028181821	11
bin	0.029090912	5
bin	0.030000003	9
bin	0.030909094	9
bin	0.031818185	3
bin	0.032727276	5
bin	0.033636367	4
bin	0.034545458	4
bin	0.035454549	4
bin	0.03636364	1
bin	0.037272731	2
bin	0.038181822	4
bin	0.039090913	3
bin	0.040000004	2
bin	0.040909095	3
bin	0.041818186	3
bin	0.042727277	3
bin	0.043636368	0
bin	0.044545459	0
bin	0.04545455	2
bin	0.046363641	1
bin	0.047272732	0
bin	0.048181823	1
bin	0.049090914	2
bin	0.05	22
scalar BasicTopology.peer[3].networkLayer.arp 	failedResolution:count 	0
attr title  "ARP failed resolutions, count"
scalar BasicTopology.peer[3].networkLayer.arp 	initiatedResolution:count 	7
attr title  "ARP initiated resolutions, count"
scalar BasicTopology.peer[3].networkLayer.arp 	sentReplies:count 	0
attr title  "ARP replies sent, count"
scalar BasicTopology.peer[3].networkLayer.arp 	sentReq:count 	7
attr title  "ARP request sent, count"
scalar BasicTopology.peer[3].wlan[0].mgmt 	dropPkByQueue:count 	1236
attr interpolationmode  none
attr source  dropPkByQueue
attr title  "packets dropped by queue, count"
scalar BasicTopology.peer[3].wlan[0].mgmt 	dropPkByQueue:sum(packetBytes) 	352549
attr interpolationmode  none
attr source  dropPkByQueue
attr title  "packets dropped by queue, sum(packetBytes)"
scalar BasicTopology.peer[3].wlan[0].mgmt 	dataQueueLen:max 	10
attr interpolationmode  sample-hold
attr title  "data queue length, max"
scalar BasicTopology.peer[3].wlan[0].mgmt 	dataQueueLen:timeavg 	0.51434215775212
attr interpolationmode  sample-hold
attr title  "data queue length, timeavg"
scalar BasicTopology.peer[3].wlan[0].mac 	"number of received packets" 	62780
scalar BasicTopology.peer[3].wlan[0].mac 	"number of collisions" 	57791
scalar BasicTopology.peer[3].wlan[0].mac 	"number of internal collisions" 	0
scalar BasicTopology.peer[3].wlan[0].mac 	"number of retry for AC 0" 	54394
scalar BasicTopology.peer[3].wlan[0].mac 	"sent and receive bites" 	159553656
scalar BasicTopology.peer[3].wlan[0].mac 	"sent packet within AC 0" 	61411
scalar BasicTopology.peer[3].wlan[0].mac 	"sent in TXOP " 	0
scalar BasicTopology.peer[3].wlan[0].mac 	"sentWithoutRetry AC 0" 	38534
scalar BasicTopology.peer[3].wlan[0].mac 	"numGivenUp AC 0" 	1267
scalar BasicTopology.peer[3].wlan[0].mac 	"numDropped AC 0" 	0
scalar BasicTopology.peer[3].wlan[0].radio 	lossRate:min 	0
attr interpolationmode  backward-sample-hold
attr title  "packet loss rate, min"
scalar BasicTopology.peer[3].wlan[0].radio 	lossRate:max 	0.64
attr interpolationmode  backward-sample-hold
attr title  "packet loss rate, max"
scalar BasicTopology.peer[3].wlan[0].radio 	lossRate:timeavg 	0.050788850219747
attr interpolationmode  backward-sample-hold
attr title  "packet loss rate, timeavg"
scalar BasicTopology.peer[3].wlan[0].radio 	radioState:count 	3311252
attr interpolationmode  sample-hold
attr title  "radio state (enum), count"
statistic BasicTopology.peer[3].wlan[0].radio 	channelNo:histogram
field count 0
field mean 0
field stddev -nan
field sum 0
field sqrsum 0
field min 0
field max 0
attr interpolationmode  sample-hold
attr title  "channel no, histogram"
bin	-INF	0
bin	-0.5	0
bin	-0.46666666666667	0
bin	-0.43333333333333	0
bin	-0.4	0
bin	-0.36666666666667	0
bin	-0.33333333333333	0
bin	-0.3	0
bin	-0.26666666666667	0
bin	-0.23333333333333	0
bin	-0.2	0
bin	-0.16666666666667	0
bin	-0.13333333333333	0
bin	-0.1	0
bin	-0.066666666666667	0
bin	-0.033333333333333	0
bin	0	0
bin	0.033333333333333	0
bin	0.066666666666667	0
bin	0.1	0
bin	0.13333333333333	0
bin	0.16666666666667	0
bin	0.2	0
bin	0.23333333333333	0
bin	0.26666666666667	0
bin	0.3	0
bin	0.33333333333333	0
bin	0.36666666666667	0
bin	0.4	0
bin	0.43333333333333	0
bin	0.46666666666667	0
bin	0.5	0
scalar BasicTopology.peer[3].wlan[0].radio 	bitrate:min 	-nan
attr interpolationmode  sample-hold
attr title  "tx bitrate, min"
attr unit  bps
scalar BasicTopology.peer[3].wlan[0].radio 	bitrate:max 	-nan
attr interpolationmode  sample-hold
attr title  "tx bitrate, max"
attr unit  bps
scalar BasicTopology.peer[3].wlan[0].radio 	bitrate:timeavg 	-nan
attr interpolationmode  sample-hold
attr title  "tx bitrate, timeavg"
attr unit  bps
statistic BasicTopology.peer[3].bitTorrentApp.swarmManager 	ContentManager_PieceDownloadTime:histogram
field count 0
field mean 0
field stddev -nan
field sum 0
field sqrsum 0
field min 0
field max 0
attr title  "Swarm Piece Download Time, histogram"
bin	-INF	0
bin	-0.5	0
bin	-0.46666666666667	0
bin	-0.43333333333333	0
bin	-0.4	0
bin	-0.36666666666667	0
bin	-0.33333333333333	0
bin	-0.3	0
bin	-0.26666666666667	0
bin	-0.23333333333333	0
bin	-0.2	0
bin	-0.16666666666667	0
bin	-0.13333333333333	0
bin	-0.1	0
bin	-0.066666666666667	0
bin	-0.033333333333333	0
bin	0	0
bin	0.033333333333333	0
bin	0.066666666666667	0
bin	0.1	0
bin	0.13333333333333	0
bin	0.16666666666667	0
bin	0.2	0
bin	0.23333333333333	0
bin	0.26666666666667	0
bin	0.3	0
bin	0.33333333333333	0
bin	0.36666666666667	0
bin	0.4	0
bin	0.43333333333333	0
bin	0.46666666666667	0
bin	0.5	0
statistic BasicTopology.peer[3].bitTorrentApp.swarmManager 	ContentManager_100_percentDownloadMarkTime:histogram
field count 0
field mean 0
field stddev -nan
field sum 0
field sqrsum 0
field min 0
field max 0
attr title  "100% Download Time Ordinate, histogram"
attr unit  s
bin	-INF	0
bin	-0.5	0
bin	-0.46666666666667	0
bin	-0.43333333333333	0
bin	-0.4	0
bin	-0.36666666666667	0
bin	-0.33333333333333	0
bin	-0.3	0
bin	-0.26666666666667	0
bin	-0.23333333333333	0
bin	-0.2	0
bin	-0.16666666666667	0
bin	-0.13333333333333	0
bin	-0.1	0
bin	-0.066666666666667	0
bin	-0.033333333333333	0
bin	0	0
bin	0.033333333333333	0
bin	0.066666666666667	0
bin	0.1	0
bin	0.13333333333333	0
bin	0.16666666666667	0
bin	0.2	0
bin	0.23333333333333	0
bin	0.26666666666667	0
bin	0.3	0
bin	0.33333333333333	0
bin	0.36666666666667	0
bin	0.4	0
bin	0.43333333333333	0
bin	0.46666666666667	0
bin	0.5	0
statistic BasicTopology.peer[3].bitTorrentApp.swarmManager 	ContentManager_75_percentDownloadMarkTime:histogram
field count 0
field mean 0
field stddev -nan
field sum 0
field sqrsum 0
field min 0
field max 0
attr title  "75% Download Time Ordinate, histogram"
attr unit  s
bin	-INF	0
bin	-0.5	0
bin	-0.46666666666667	0
bin	-0.43333333333333	0
bin	-0.4	0
bin	-0.36666666666667	0
bin	-0.33333333333333	0
bin	-0.3	0
bin	-0.26666666666667	0
bin	-0.23333333333333	0
bin	-0.2	0
bin	-0.16666666666667	0
bin	-0.13333333333333	0
bin	-0.1	0
bin	-0.066666666666667	0
bin	-0.033333333333333	0
bin	0	0
bin	0.033333333333333	0
bin	0.066666666666667	0
bin	0.1	0
bin	0.13333333333333	0
bin	0.16666666666667	0
bin	0.2	0
bin	0.23333333333333	0
bin	0.26666666666667	0
bin	0.3	0
bin	0.33333333333333	0
bin	0.36666666666667	0
bin	0.4	0
bin	0.43333333333333	0
bin	0.46666666666667	0
bin	0.5	0
statistic BasicTopology.peer[3].bitTorrentApp.swarmManager 	ContentManager_50_percentDownloadMarkTime:histogram
field count 0
field mean 0
field stddev -nan
field sum 0
field sqrsum 0
field min 0
field max 0
attr title  "50% Download Time Ordinate, histogram"
attr unit  s
bin	-INF	0
bin	-0.5	0
bin	-0.46666666666667	0
bin	-0.43333333333333	0
bin	-0.4	0
bin	-0.36666666666667	0
bin	-0.33333333333333	0
bin	-0.3	0
bin	-0.26666666666667	0
bin	-0.23333333333333	0
bin	-0.2	0
bin	-0.16666666666667	0
bin	-0.13333333333333	0
bin	-0.1	0
bin	-0.066666666666667	0
bin	-0.033333333333333	0
bin	0	0
bin	0.033333333333333	0
bin	0.066666666666667	0
bin	0.1	0
bin	0.13333333333333	0
bin	0.16666666666667	0
bin	0.2	0
bin	0.23333333333333	0
bin	0.26666666666667	0
bin	0.3	0
bin	0.33333333333333	0
bin	0.36666666666667	0
bin	0.4	0
bin	0.43333333333333	0
bin	0.46666666666667	0
bin	0.5	0
statistic BasicTopology.peer[3].bitTorrentApp.swarmManager 	ContentManager_25_percentDownloadMarkTime:histogram
field count 0
field mean 0
field stddev -nan
field sum 0
field sqrsum 0
field min 0
field max 0
attr title  "25% Download Time Ordinate, histogram"
attr unit  s
bin	-INF	0
bin	-0.5	0
bin	-0.46666666666667	0
bin	-0.43333333333333	0
bin	-0.4	0
bin	-0.36666666666667	0
bin	-0.33333333333333	0
bin	-0.3	0
bin	-0.26666666666667	0
bin	-0.23333333333333	0
bin	-0.2	0
bin	-0.16666666666667	0
bin	-0.13333333333333	0
bin	-0.1	0
bin	-0.066666666666667	0
bin	-0.033333333333333	0
bin	0	0
bin	0.033333333333333	0
bin	0.066666666666667	0
bin	0.1	0
bin	0.13333333333333	0
bin	0.16666666666667	0
bin	0.2	0
bin	0.23333333333333	0
bin	0.26666666666667	0
bin	0.3	0
bin	0.33333333333333	0
bin	0.36666666666667	0
bin	0.4	0
bin	0.43333333333333	0
bin	0.46666666666667	0
bin	0.5	0
scalar BasicTopology.peer[3].bitTorrentApp.swarmManager 	SwarmManager_EnteredSwarm:last 	-nan
attr title  "Enter Swarm Instant, last"
scalar BasicTopology.peer[3].bitTorrentApp.bitTorrentClient.contentManager_26 	ContentManager_75_percentDownloadMarkTime:last 	-nan
attr title  "75% Download Time Ordinate, last"
attr unit  s
scalar BasicTopology.peer[3].bitTorrentApp.bitTorrentClient.contentManager_26 	ContentManager_50_percentDownloadMarkTime:last 	-nan
attr title  "50% Download Time Ordinate, last"
attr unit  s
scalar BasicTopology.peer[3].bitTorrentApp.bitTorrentClient.contentManager_26 	ContentManager_25_percentDownloadMarkTime:last 	-nan
attr title  "25% Download Time Ordinate, last"
attr unit  s
statistic BasicTopology.peer[3].bitTorrentApp.bitTorrentClient 	"Piece processing time histogram"
field count 2936
field mean 0.0073639305177112
field stddev 0.0099766190078884
field sum 21.6205
field sqrsum 0.451341
field min 0
field max 0.102482
bin	-INF	0
bin	0	936
bin	0.000909091	352
bin	0.001818182	155
bin	0.002727273	108
bin	0.003636364	126
bin	0.004545455	111
bin	0.005454546	58
bin	0.006363637	55
bin	0.007272728	27
bin	0.008181819	55
bin	0.00909091	55
bin	0.010000001	85
bin	0.010909092	81
bin	0.011818183	66
bin	0.012727274	70
bin	0.013636365	71
bin	0.014545456	54
bin	0.015454547	41
bin	0.016363638	49
bin	0.017272729	44
bin	0.01818182	40
bin	0.019090911	33
bin	0.020000002	31
bin	0.020909093	22
bin	0.021818184	27
bin	0.022727275	16
bin	0.023636366	16
bin	0.024545457	14
bin	0.025454548	15
bin	0.026363639	9
bin	0.02727273	11
bin	0.028181821	11
bin	0.029090912	5
bin	0.030000003	9
bin	0.030909094	9
bin	0.031818185	3
bin	0.032727276	5
bin	0.033636367	4
bin	0.034545458	4
bin	0.035454549	4
bin	0.03636364	1
bin	0.037272731	2
bin	0.038181822	4
bin	0.039090913	3
bin	0.040000004	2
bin	0.040909095	3
bin	0.041818186	3
bin	0.042727277	3
bin	0.043636368	0
bin	0.044545459	0
bin	0.04545455	2
bin	0.046363641	1
bin	0.047272732	0
bin	0.048181823	1
bin	0.049090914	2
bin	0.05	22
scalar BasicTopology.peer[4].networkLayer.arp 	failedResolution:count 	0
attr title  "ARP failed resolutions, count"
scalar BasicTopology.peer[4].networkLayer.arp 	initiatedResolution:count 	7
attr title  "ARP initiated resolutions, count"
scalar BasicTopology.peer[4].networkLayer.arp 	sentReplies:count 	0
attr title  "ARP replies sent, count"
scalar BasicTopology.peer[4].networkLayer.arp 	sentReq:count 	10
attr title  "ARP request sent, count"
scalar BasicTopology.peer[4].wlan[0].mgmt 	dropPkByQueue:count 	821
attr interpolationmode  none
attr source  dropPkByQueue
attr title  "packets dropped by queue, count"
scalar BasicTopology.peer[4].wlan[0].mgmt 	dropPkByQueue:sum(packetBytes) 	206313
attr interpolationmode  none
attr source  dropPkByQueue
attr title  "packets dropped by queue, sum(packetBytes)"
scalar BasicTopology.peer[4].wlan[0].mgmt 	dataQueueLen:max 	10
attr interpolationmode  sample-hold
attr title  "data queue length, max"
scalar BasicTopology.peer[4].wlan[0].mgmt 	dataQueueLen:timeavg 	0.24744307973238
attr interpolationmode  sample-hold
attr title  "data queue length, timeavg"
scalar BasicTopology.peer[4].wlan[0].mac 	"number of received packets" 	49838
scalar BasicTopology.peer[4].wlan[0].mac 	"number of collisions" 	98870
scalar BasicTopology.peer[4].wlan[0].mac 	"number of internal collisions" 	0
scalar BasicTopology.peer[4].wlan[0].mac 	"number of retry for AC 0" 	34137
scalar BasicTopology.peer[4].wlan[0].mac 	"sent and receive bites" 	118014472
scalar BasicTopology.peer[4].wlan[0].mac 	"sent packet within AC 0" 	49548
scalar BasicTopology.peer[4].wlan[0].mac 	"sent in TXOP " 	0
scalar BasicTopology.peer[4].wlan[0].mac 	"sentWithoutRetry AC 0" 	32804
scalar BasicTopology.peer[4].wlan[0].mac 	"numGivenUp AC 0" 	389
scalar BasicTopology.peer[4].wlan[0].mac 	"numDropped AC 0" 	0
scalar BasicTopology.peer[4].wlan[0].radio 	lossRate:min 	0
attr interpolationmode  backward-sample-hold
attr title  "packet loss rate, min"
scalar BasicTopology.peer[4].wlan[0].radio 	lossRate:max 	0.56
attr interpolationmode  backward-sample-hold
attr title  "packet loss rate, max"
scalar BasicTopology.peer[4].wlan[0].radio 	lossRate:timeavg 	0.086311805379873
attr interpolationmode  backward-sample-hold
attr title  "packet loss rate, timeavg"
scalar BasicTopology.peer[4].wlan[0].radio 	radioState:count 	3390276
attr interpolationmode  sample-hold
attr title  "radio state (enum), count"
statistic BasicTopology.peer[4].wlan[0].radio 	channelNo:histogram
field count 0
field mean 0
field stddev -nan
field sum 0
field sqrsum 0
field min 0
field max 0
attr interpolationmode  sample-hold
attr title  "channel no, histogram"
bin	-INF	0
bin	-0.5	0
bin	-0.46666666666667	0
bin	-0.43333333333333	0
bin	-0.4	0
bin	-0.36666666666667	0
bin	-0.33333333333333	0
bin	-0.3	0
bin	-0.26666666666667	0
bin	-0.23333333333333	0
bin	-0.2	0
bin	-0.16666666666667	0
bin	-0.13333333333333	0
bin	-0.1	0
bin	-0.066666666666667	0
bin	-0.033333333333333	0
bin	0	0
bin	0.033333333333333	0
bin	0.066666666666667	0
bin	0.1	0
bin	0.13333333333333	0
bin	0.16666666666667	0
bin	0.2	0
bin	0.23333333333333	0
bin	0.26666666666667	0
bin	0.3	0
bin	0.33333333333333	0
bin	0.36666666666667	0
bin	0.4	0
bin	0.43333333333333	0
bin	0.46666666666667	0
bin	0.5	0
scalar BasicTopology.peer[4].wlan[0].radio 	bitrate:min 	-nan
attr interpolationmode  sample-hold
attr title  "tx bitrate, min"
attr unit  bps
scalar BasicTopology.peer[4].wlan[0].radio 	bitrate:max 	-nan
attr interpolationmode  sample-hold
attr title  "tx bitrate, max"
attr unit  bps
scalar BasicTopology.peer[4].wlan[0].radio 	bitrate:timeavg 	-nan
attr interpolationmode  sample-hold
attr title  "tx bitrate, timeavg"
attr unit  bps
statistic BasicTopology.peer[4].bitTorrentApp.swarmManager 	ContentManager_PieceDownloadTime:histogram
field count 0
field mean 0
field stddev -nan
field sum 0
field sqrsum 0
field min 0
field max 0
attr title  "Swarm Piece Download Time, histogram"
bin	-INF	0
bin	-0.5	0
bin	-0.46666666666667	0
bin	-0.43333333333333	0
bin	-0.4	0
bin	-0.36666666666667	0
bin	-0.33333333333333	0
bin	-0.3	0
bin	-0.26666666666667	0
bin	-0.23333333333333	0
bin	-0.2	0
bin	-0.16666666666667	0
bin	-0.13333333333333	0
bin	-0.1	0
bin	-0.066666666666667	0
bin	-0.033333333333333	0
bin	0	0
bin	0.033333333333333	0
bin	0.066666666666667	0
bin	0.1	0
bin	0.13333333333333	0
bin	0.16666666666667	0
bin	0.2	0
bin	0.23333333333333	0
bin	0.26666666666667	0
bin	0.3	0
bin	0.33333333333333	0
bin	0.36666666666667	0
bin	0.4	0
bin	0.43333333333333	0
bin	0.46666666666667	0
bin	0.5	0
statistic BasicTopology.peer[4].bitTorrentApp.swarmManager 	ContentManager_100_percentDownloadMarkTime:histogram
field count 0
field mean 0
field stddev -nan
field sum 0
field sqrsum 0
field min 0
field max 0
attr title  "100% Download Time Ordinate, histogram"
attr unit  s
bin	-INF	0
bin	-0.5	0
bin	-0.46666666666667	0
bin	-0.43333333333333	0
bin	-0.4	0
bin	-0.36666666666667	0
bin	-0.33333333333333	0
bin	-0.3	0
bin	-0.26666666666667	0
bin	-0.23333333333333	0
bin	-0.2	0
bin	-0.16666666666667	0
bin	-0.13333333333333	0
bin	-0.1	0
bin	-0.066666666666667	0
bin	-0.033333333333333	0
bin	0	0
bin	0.033333333333333	0
bin	0.066666666666667	0
bin	0.1	0
bin	0.13333333333333	0
bin	0.16666666666667	0
bin	0.2	0
bin	0.23333333333333	0
bin	0.26666666666667	0
bin	0.3	0
bin	0.33333333333333	0
bin	0.36666666666667	0
bin	0.4	0
bin	0.43333333333333	0
bin	0.46666666666667	0
bin	0.5	0
statistic BasicTopology.peer[4].bitTorrentApp.swarmManager 	ContentManager_75_percentDownloadMarkTime:histogram
field count 0
field mean 0
field stddev -nan
field sum 0
field sqrsum 0
field min 0
field max 0
attr title  "75% Download Time Ordinate, histogram"
attr unit  s
bin	-INF	0
bin	-0.5	0
bin	-0.46666666666667	0
bin	-0.43333333333333	0
bin	-0.4	0
bin	-0.36666666666667	0
bin	-0.33333333333333	0
bin	-0.3	0
bin	-0.26666666666667	0
bin	-0.23333333333333	0
bin	-0.2	0
bin	-0.16666666666667	0
bin	-0.13333333333333	0
bin	-0.1	0
bin	-0.066666666666667	0
bin	-0.033333333333333	0
bin	0	0
bin	0.033333333333333	0
bin	0.066666666666667	0
bin	0.1	0
bin	0.13333333333333	0
bin	0.16666666666667	0
bin	0.2	0
bin	0.23333333333333	0
bin	0.26666666666667	0
bin	0.3	0
bin	0.33333333333333	0
bin	0.36666666666667	0
bin	0.4	0
bin	0.43333333333333	0
bin	0.46666666666667	0
bin	0.5	0
statistic BasicTopology.peer[4].bitTorrentApp.swarmManager 	ContentManager_50_percentDownloadMarkTime:histogram
field count 0
field mean 0
field stddev -nan
field sum 0
field sqrsum 0
field min 0
field max 0
attr title  "50% Download Time Ordinate, histogram"
attr unit  s
bin	-INF	0
bin	-0.5	0
bin	-0.46666666666667	0
bin	-0.43333333333333	0
bin	-0.4	0
bin	-0.36666666666667	0
bin	-0.33333333333333	0
bin	-0.3	0
bin	-0.26666666666667	0
bin	-0.23333333333333	0
bin	-0.2	0
bin	-0.16666666666667	0
bin	-0.13333333333333	0
bin	-0.1	0
bin	-0.066666666666667	0
bin	-0.033333333333333	0
bin	0	0
bin	0.033333333333333	0
bin	0.066666666666667	0
bin	0.1	0
bin	0.13333333333333	0
bin	0.16666666666667	0
bin	0.2	0
bin	0.23333333333333	0
bin	0.26666666666667	0
bin	0.3	0
bin	0.33333333333333	0
bin	0.36666666666667	0
bin	0.4	0
bin	0.43333333333333	0
bin	0.46666666666667	0
bin	0.5	0
statistic BasicTopology.peer[4].bitTorrentApp.swarmManager 	ContentManager_25_percentDownloadMarkTime:histogram
field count 0
field mean 0
field stddev -nan
field sum 0
field sqrsum 0
field min 0
field max 0
attr title  "25% Download Time Ordinate, histogram"
attr unit  s
bin	-INF	0
bin	-0.5	0
bin	-0.46666666666667	0
bin	-0.43333333333333	0
bin	-0.4	0
bin	-0.36666666666667	0
bin	-0.33333333333333	0
bin	-0.3	0
bin	-0.26666666666667	0
bin	-0.23333333333333	0
bin	-0.2	0
bin	-0.16666666666667	0
bin	-0.13333333333333	0
bin	-0.1	0
bin	-0.066666666666667	0
bin	-0.033333333333333	0
bin	0	0
bin	0.033333333333333	0
bin	0.066666666666667	0
bin	0.1	0
bin	0.13333333333333	0
bin	0.16666666666667	0
bin	0.2	0
bin	0.23333333333333	0
bin	0.26666666666667	0
bin	0.3	0
bin	0.33333333333333	0
bin	0.36666666666667	0
bin	0.4	0
bin	0.43333333333333	0
bin	0.46666666666667	0
bin	0.5	0
scalar BasicTopology.peer[4].bitTorrentApp.swarmManager 	SwarmManager_EnteredSwarm:last 	-nan
attr title  "Enter Swarm Instant, last"
scalar BasicTopology.peer[4].bitTorrentApp.bitTorrentClient.contentManager_26 	ContentManager_75_percentDownloadMarkTime:last 	-nan
attr title  "75% Download Time Ordinate, last"
attr unit  s
scalar BasicTopology.peer[4].bitTorrentApp.bitTorrentClient.contentManager_26 	ContentManager_50_percentDownloadMarkTime:last 	-nan
attr title  "50% Download Time Ordinate, last"
attr unit  s
scalar BasicTopology.peer[4].bitTorrentApp.bitTorrentClient.contentManager_26 	ContentManager_25_percentDownloadMarkTime:last 	-nan
attr title  "25% Download Time Ordinate, last"
attr unit  s
statistic BasicTopology.peer[4].bitTorrentApp.bitTorrentClient 	"Piece processing time histogram"
field count 2936
field mean 0.0073639305177112
field stddev 0.0099766190078884
field sum 21.6205
field sqrsum 0.451341
field min 0
field max 0.102482
bin	-INF	0
bin	0	936
bin	0.000909091	352
bin	0.001818182	155
bin	0.002727273	108
bin	0.003636364	126
bin	0.004545455	111
bin	0.005454546	58
bin	0.006363637	55
bin	0.007272728	27
bin	0.008181819	55
bin	0.00909091	55
bin	0.010000001	85
bin	0.010909092	81
bin	0.011818183	66
bin	0.012727274	70
bin	0.013636365	71
bin	0.014545456	54
bin	0.015454547	41
bin	0.016363638	49
bin	0.017272729	44
bin	0.01818182	40
bin	0.019090911	33
bin	0.020000002	31
bin	0.020909093	22
bin	0.021818184	27
bin	0.022727275	16
bin	0.023636366	16
bin	0.024545457	14
bin	0.025454548	15
bin	0.026363639	9
bin	0.02727273	11
bin	0.028181821	11
bin	0.029090912	5
bin	0.030000003	9
bin	0.030909094	9
bin	0.031818185	3
bin	0.032727276	5
bin	0.033636367	4
bin	0.034545458	4
bin	0.035454549	4
bin	0.03636364	1
bin	0.037272731	2
bin	0.038181822	4
bin	0.039090913	3
bin	0.040000004	2
bin	0.040909095	3
bin	0.041818186	3
bin	0.042727277	3
bin	0.043636368	0
bin	0.044545459	0
bin	0.04545455	2
bin	0.046363641	1
bin	0.047272732	0
bin	0.048181823	1
bin	0.049090914	2
bin	0.05	22
scalar BasicTopology.peer[5].networkLayer.arp 	failedResolution:count 	0
attr title  "ARP failed resolutions, count"
scalar BasicTopology.peer[5].networkLayer.arp 	initiatedResolution:count 	7
attr title  "ARP initiated resolutions, count"
scalar BasicTopology.peer[5].networkLayer.arp 	sentReplies:count 	0
attr title  "ARP replies sent, count"
scalar BasicTopology.peer[5].networkLayer.arp 	sentReq:count 	7
attr title  "ARP request sent, count"
scalar BasicTopology.peer[5].wlan[0].mgmt 	dropPkByQueue:count 	528
attr interpolationmode  none
attr source  dropPkByQueue
attr title  "packets dropped by queue, count"
scalar BasicTopology.peer[5].wlan[0].mgmt 	dropPkByQueue:sum(packetBytes) 	106178
attr interpolationmode  none
attr source  dropPkByQueue
attr title  "packets dropped by queue, sum(packetBytes)"
scalar BasicTopology.peer[5].wlan[0].mgmt 	dataQueueLen:max 	10
attr interpolationmode  sample-hold
attr title  "data queue length, max"
scalar BasicTopology.peer[5].wlan[0].mgmt 	dataQueueLen:timeavg 	0.19634086492331
attr interpolationmode  sample-hold
attr title  "data queue length, timeavg"
scalar BasicTopology.peer[5].wlan[0].mac 	"number of received packets" 	50198
scalar BasicTopology.peer[5].wlan[0].mac 	"number of collisions" 	52974
scalar BasicTopology.peer[5].wlan[0].mac 	"number of internal collisions" 	0
scalar BasicTopology.peer[5].wlan[0].mac 	"number of retry for AC 0" 	30405
scalar BasicTopology.peer[5].wlan[0].mac 	"sent and receive bites" 	113838888
scalar BasicTopology.peer[5].wlan[0].mac 	"sent packet within AC 0" 	49885
scalar BasicTopology.peer[5].wlan[0].mac 	"sent in TXOP " 	0
scalar BasicTopology.peer[5].wlan[0].mac 	"sentWithoutRetry AC 0" 	34370
scalar BasicTopology.peer[5].wlan[0].mac 	"numGivenUp AC 0" 	307
scalar BasicTopology.peer[5].wlan[0].mac 	"numDropped AC 0" 	0
scalar BasicTopology.peer[5].wlan[0].radio 	lossRate:min 	0
attr interpolationmode  backward-sample-hold
attr title  "packet loss rate, min"
scalar BasicTopology.peer[5].wlan[0].radio 	lossRate:max 	0.5
attr interpolationmode  backward-sample-hold
attr title  "packet loss rate, max"
scalar BasicTopology.peer[5].wlan[0].radio 	lossRate:timeavg 	0.045449445491775
attr interpolationmode  backward-sample-hold
attr title  "packet loss rate, timeavg"
scalar BasicTopology.peer[5].wlan[0].radio 	radioState:count 	3238612
attr interpolationmode  sample-hold
attr title  "radio state (enum), count"
statistic BasicTopology.peer[5].wlan[0].radio 	channelNo:histogram
field count 0
field mean 0
field stddev -nan
field sum 0
field sqrsum 0
field min 0
field max 0
attr interpolationmode  sample-hold
attr title  "channel no, histogram"
bin	-INF	0
bin	-0.5	0
bin	-0.46666666666667	0
bin	-0.43333333333333	0
bin	-0.4	0
bin	-0.36666666666667	0
bin	-0.33333333333333	0
bin	-0.3	0
bin	-0.26666666666667	0
bin	-0.23333333333333	0
bin	-0.2	0
bin	-0.16666666666667	0
bin	-0.13333333333333	0
bin	-0.1	0
bin	-0.066666666666667	0
bin	-0.033333333333333	0
bin	0	0
bin	0.033333333333333	0
bin	0.066666666666667	0
bin	0.1	0
bin	0.13333333333333	0
bin	0.16666666666667	0
bin	0.2	0
bin	0.23333333333333	0
bin	0.26666666666667	0
bin	0.3	0
bin	0.33333333333333	0
bin	0.36666666666667	0
bin	0.4	0
bin	0.43333333333333	0
bin	0.46666666666667	0
bin	0.5	0
scalar BasicTopology.peer[5].wlan[0].radio 	bitrate:min 	-nan
attr interpolationmode  sample-hold
attr title  "tx bitrate, min"
attr unit  bps
scalar BasicTopology.peer[5].wlan[0].radio 	bitrate:max 	-nan
attr interpolationmode  sample-hold
attr title  "tx bitrate, max"
attr unit  bps
scalar BasicTopology.peer[5].wlan[0].radio 	bitrate:timeavg 	-nan
attr interpolationmode  sample-hold
attr title  "tx bitrate, timeavg"
attr unit  bps
statistic BasicTopology.peer[5].bitTorrentApp.swarmManager 	ContentManager_PieceDownloadTime:histogram
field count 0
field mean 0
field stddev -nan
field sum 0
field sqrsum 0
field min 0
field max 0
attr title  "Swarm Piece Download Time, histogram"
bin	-INF	0
bin	-0.5	0
bin	-0.46666666666667	0
bin	-0.43333333333333	0
bin	-0.4	0
bin	-0.36666666666667	0
bin	-0.33333333333333	0
bin	-0.3	0
bin	-0.26666666666667	0
bin	-0.23333333333333	0
bin	-0.2	0
bin	-0.16666666666667	0
bin	-0.13333333333333	0
bin	-0.1	0
bin	-0.066666666666667	0
bin	-0.033333333333333	0
bin	0	0
bin	0.033333333333333	0
bin	0.066666666666667	0
bin	0.1	0
bin	0.13333333333333	0
bin	0.16666666666667	0
bin	0.2	0
bin	0.23333333333333	0
bin	0.26666666666667	0
bin	0.3	0
bin	0.33333333333333	0
bin	0.36666666666667	0
bin	0.4	0
bin	0.43333333333333	0
bin	0.46666666666667	0
bin	0.5	0
statistic BasicTopology.peer[5].bitTorrentApp.swarmManager 	ContentManager_100_percentDownloadMarkTime:histogram
field count 0
field mean 0
field stddev -nan
field sum 0
field sqrsum 0
field min 0
field max 0
attr title  "100% Download Time Ordinate, histogram"
attr unit  s
bin	-INF	0
bin	-0.5	0
bin	-0.46666666666667	0
bin	-0.43333333333333	0
bin	-0.4	0
bin	-0.36666666666667	0
bin	-0.33333333333333	0
bin	-0.3	0
bin	-0.26666666666667	0
bin	-0.23333333333333	0
bin	-0.2	0
bin	-0.16666666666667	0
bin	-0.13333333333333	0
bin	-0.1	0
bin	-0.066666666666667	0
bin	-0.033333333333333	0
bin	0	0
bin	0.033333333333333	0
bin	0.066666666666667	0
bin	0.1	0
bin	0.13333333333333	0
bin	0.16666666666667	0
bin	0.2	0
bin	0.23333333333333	0
bin	0.26666666666667	0
bin	0.3	0
bin	0.33333333333333	0
bin	0.36666666666667	0
bin	0.4	0
bin	0.43333333333333	0
bin	0.46666666666667	0
bin	0.5	0
statistic BasicTopology.peer[5].bitTorrentApp.swarmManager 	ContentManager_75_percentDownloadMarkTime:histogram
field count 0
field mean 0
field stddev -nan
field sum 0
field sqrsum 0
field min 0
field max 0
attr title  "75% Download Time Ordinate, histogram"
attr unit  s
bin	-INF	0
bin	-0.5	0
bin	-0.46666666666667	0
bin	-0.43333333333333	0
bin	-0.4	0
bin	-0.36666666666667	0
bin	-0.33333333333333	0
bin	-0.3	0
bin	-0.26666666666667	0
bin	-0.23333333333333	0
bin	-0.2	0
bin	-0.16666666666667	0
bin	-0.13333333333333	0
bin	-0.1	0
bin	-0.066666666666667	0
bin	-0.033333333333333	0
bin	0	0
bin	0.033333333333333	0
bin	0.066666666666667	0
bin	0.1	0
bin	0.13333333333333	0
bin	0.16666666666667	0
bin	0.2	0
bin	0.23333333333333	0
bin	0.26666666666667	0
bin	0.3	0
bin	0.33333333333333	0
bin	0.36666666666667	0
bin	0.4	0
bin	0.43333333333333	0
bin	0.46666666666667	0
bin	0.5	0
statistic BasicTopology.peer[5].bitTorrentApp.swarmManager 	ContentManager_50_percentDownloadMarkTime:histogram
field count 0
field mean 0
field stddev -nan
field sum 0
field sqrsum 0
field min 0
field max 0
attr title  "50% Download Time Ordinate, histogram"
attr unit  s
bin	-INF	0
bin	-0.5	0
bin	-0.46666666666667	0
bin	-0.43333333333333	0
bin	-0.4	0
bin	-0.36666666666667	0
bin	-0.33333333333333	0
bin	-0.3	0
bin	-0.26666666666667	0
bin	-0.23333333333333	0
bin	-0.2	0
bin	-0.16666666666667	0
bin	-0.13333333333333	0
bin	-0.1	0
bin	-0.066666666666667	0
bin	-0.033333333333333	0
bin	0	0
bin	0.033333333333333	0
bin	0.066666666666667	0
bin	0.1	0
bin	0.13333333333333	0
bin	0.16666666666667	0
bin	0.2	0
bin	0.23333333333333	0
bin	0.26666666666667	0
bin	0.3	0
bin	0.33333333333333	0
bin	0.36666666666667	0
bin	0.4	0
bin	0.43333333333333	0
bin	0.46666666666667	0
bin	0.5	0
statistic BasicTopology.peer[5].bitTorrentApp.swarmManager 	ContentManager_25_percentDownloadMarkTime:histogram
field count 0
field mean 0
field stddev -nan
field sum 0
field sqrsum 0
field min 0
field max 0
attr title  "25% Download Time Ordinate, histogram"
attr unit  s
bin	-INF	0
bin	-0.5	0
bin	-0.46666666666667	0
bin	-0.43333333333333	0
bin	-0.4	0
bin	-0.36666666666667	0
bin	-0.33333333333333	0
bin	-0.3	0
bin	-0.26666666666667	0
bin	-0.23333333333333	0
bin	-0.2	0
bin	-0.16666666666667	0
bin	-0.13333333333333	0
bin	-0.1	0
bin	-0.066666666666667	0
bin	-0.033333333333333	0
bin	0	0
bin	0.033333333333333	0
bin	0.066666666666667	0
bin	0.1	0
bin	0.13333333333333	0
bin	0.16666666666667	0
bin	0.2	0
bin	0.23333333333333	0
bin	0.26666666666667	0
bin	0.3	0
bin	0.33333333333333	0
bin	0.36666666666667	0
bin	0.4	0
bin	0.43333333333333	0
bin	0.46666666666667	0
bin	0.5	0
scalar BasicTopology.peer[5].bitTorrentApp.swarmManager 	SwarmManager_EnteredSwarm:last 	-nan
attr title  "Enter Swarm Instant, last"
scalar BasicTopology.peer[5].bitTorrentApp.bitTorrentClient.contentManager_26 	ContentManager_75_percentDownloadMarkTime:last 	-nan
attr title  "75% Download Time Ordinate, last"
attr unit  s
scalar BasicTopology.peer[5].bitTorrentApp.bitTorrentClient.contentManager_26 	ContentManager_50_percentDownloadMarkTime:last 	-nan
attr title  "50% Download Time Ordinate, last"
attr unit  s
scalar BasicTopology.peer[5].bitTorrentApp.bitTorrentClient.contentManager_26 	ContentManager_25_percentDownloadMarkTime:last 	-nan
attr title  "25% Download Time Ordinate, last"
attr unit  s
statistic BasicTopology.peer[5].bitTorrentApp.bitTorrentClient 	"Piece processing time histogram"
field count 2936
field mean 0.0073639305177112
field stddev 0.0099766190078884
field sum 21.6205
field sqrsum 0.451341
field min 0
field max 0.102482
bin	-INF	0
bin	0	936
bin	0.000909091	352
bin	0.001818182	155
bin	0.002727273	108
bin	0.003636364	126
bin	0.004545455	111
bin	0.005454546	58
bin	0.006363637	55
bin	0.007272728	27
bin	0.008181819	55
bin	0.00909091	55
bin	0.010000001	85
bin	0.010909092	81
bin	0.011818183	66
bin	0.012727274	70
bin	0.013636365	71
bin	0.014545456	54
bin	0.015454547	41
bin	0.016363638	49
bin	0.017272729	44
bin	0.01818182	40
bin	0.019090911	33
bin	0.020000002	31
bin	0.020909093	22
bin	0.021818184	27
bin	0.022727275	16
bin	0.023636366	16
bin	0.024545457	14
bin	0.025454548	15
bin	0.026363639	9
bin	0.02727273	11
bin	0.028181821	11
bin	0.029090912	5
bin	0.030000003	9
bin	0.030909094	9
bin	0.031818185	3
bin	0.032727276	5
bin	0.033636367	4
bin	0.034545458	4
bin	0.035454549	4
bin	0.03636364	1
bin	0.037272731	2
bin	0.038181822	4
bin	0.039090913	3
bin	0.040000004	2
bin	0.040909095	3
bin	0.041818186	3
bin	0.042727277	3
bin	0.043636368	0
bin	0.044545459	0
bin	0.04545455	2
bin	0.046363641	1
bin	0.047272732	0
bin	0.048181823	1
bin	0.049090914	2
bin	0.05	22
scalar BasicTopology.peer[6].networkLayer.arp 	failedResolution:count 	0
attr title  "ARP failed resolutions, count"
scalar BasicTopology.peer[6].networkLayer.arp 	initiatedResolution:count 	8
attr title  "ARP initiated resolutions, count"
scalar BasicTopology.peer[6].networkLayer.arp 	sentReplies:count 	0
attr title  "ARP replies sent, count"
scalar BasicTopology.peer[6].networkLayer.arp 	sentReq:count 	10
attr title  "ARP request sent, count"
scalar BasicTopology.peer[6].wlan[0].mgmt 	dropPkByQueue:count 	572
attr interpolationmode  none
attr source  dropPkByQueue
attr title  "packets dropped by queue, count"
scalar BasicTopology.peer[6].wlan[0].mgmt 	dropPkByQueue:sum(packetBytes) 	107787
attr interpolationmode  none
attr source  dropPkByQueue
attr title  "packets dropped by queue, sum(packetBytes)"
scalar BasicTopology.peer[6].wlan[0].mgmt 	dataQueueLen:max 	10
attr interpolationmode  sample-hold
attr title  "data queue length, max"
scalar BasicTopology.peer[6].wlan[0].mgmt 	dataQueueLen:timeavg 	0.14528241502405
attr interpolationmode  sample-hold
attr title  "data queue length, timeavg"
scalar BasicTopology.peer[6].wlan[0].mac 	"number of received packets" 	75258
scalar BasicTopology.peer[6].wlan[0].mac 	"number of collisions" 	58074
scalar BasicTopology.peer[6].wlan[0].mac 	"number of internal collisions" 	0
scalar BasicTopology.peer[6].wlan[0].mac 	"number of retry for AC 0" 	35855
scalar BasicTopology.peer[6].wlan[0].mac 	"sent and receive bites" 	180431488
scalar BasicTopology.peer[6].wlan[0].mac 	"sent packet within AC 0" 	74537
scalar BasicTopology.peer[6].wlan[0].mac 	"sent in TXOP " 	0
scalar BasicTopology.peer[6].wlan[0].mac 	"sentWithoutRetry AC 0" 	54999
scalar BasicTopology.peer[6].wlan[0].mac 	"numGivenUp AC 0" 	167
scalar BasicTopology.peer[6].wlan[0].mac 	"numDropped AC 0" 	0
scalar BasicTopology.peer[6].wlan[0].radio 	lossRate:min 	0
attr interpolationmode  backward-sample-hold
attr title  "packet loss rate, min"
scalar BasicTopology.peer[6].wlan[0].radio 	lossRate:max 	0.5
attr interpolationmode  backward-sample-hold
attr title  "packet loss rate, max"
scalar BasicTopology.peer[6].wlan[0].radio 	lossRate:timeavg 	0.053126442176712
attr interpolationmode  backward-sample-hold
attr title  "packet loss rate, timeavg"
scalar BasicTopology.peer[6].wlan[0].radio 	radioState:count 	3181250
attr interpolationmode  sample-hold
attr title  "radio state (enum), count"
statistic BasicTopology.peer[6].wlan[0].radio 	channelNo:histogram
field count 0
field mean 0
field stddev -nan
field sum 0
field sqrsum 0
field min 0
field max 0
attr interpolationmode  sample-hold
attr title  "channel no, histogram"
bin	-INF	0
bin	-0.5	0
bin	-0.46666666666667	0
bin	-0.43333333333333	0
bin	-0.4	0
bin	-0.36666666666667	0
bin	-0.33333333333333	0
bin	-0.3	0
bin	-0.26666666666667	0
bin	-0.23333333333333	0
bin	-0.2	0
bin	-0.16666666666667	0
bin	-0.13333333333333	0
bin	-0.1	0
bin	-0.066666666666667	0
bin	-0.033333333333333	0
bin	0	0
bin	0.033333333333333	0
bin	0.066666666666667	0
bin	0.1	0
bin	0.13333333333333	0
bin	0.16666666666667	0
bin	0.2	0
bin	0.23333333333333	0
bin	0.26666666666667	0
bin	0.3	0
bin	0.33333333333333	0
bin	0.36666666666667	0
bin	0.4	0
bin	0.43333333333333	0
bin	0.46666666666667	0
bin	0.5	0
scalar BasicTopology.peer[6].wlan[0].radio 	bitrate:min 	-nan
attr interpolationmode  sample-hold
attr title  "tx bitrate, min"
attr unit  bps
scalar BasicTopology.peer[6].wlan[0].radio 	bitrate:max 	-nan
attr interpolationmode  sample-hold
attr title  "tx bitrate, max"
attr unit  bps
scalar BasicTopology.peer[6].wlan[0].radio 	bitrate:timeavg 	-nan
attr interpolationmode  sample-hold
attr title  "tx bitrate, timeavg"
attr unit  bps
statistic BasicTopology.peer[6].bitTorrentApp.swarmManager 	ContentManager_PieceDownloadTime:histogram
field count 0
field mean 0
field stddev -nan
field sum 0
field sqrsum 0
field min 0
field max 0
attr title  "Swarm Piece Download Time, histogram"
bin	-INF	0
bin	-0.5	0
bin	-0.46666666666667	0
bin	-0.43333333333333	0
bin	-0.4	0
bin	-0.36666666666667	0
bin	-0.33333333333333	0
bin	-0.3	0
bin	-0.26666666666667	0
bin	-0.23333333333333	0
bin	-0.2	0
bin	-0.16666666666667	0
bin	-0.13333333333333	0
bin	-0.1	0
bin	-0.066666666666667	0
bin	-0.033333333333333	0
bin	0	0
bin	0.033333333333333	0
bin	0.066666666666667	0
bin	0.1	0
bin	0.13333333333333	0
bin	0.16666666666667	0
bin	0.2	0
bin	0.23333333333333	0
bin	0.26666666666667	0
bin	0.3	0
bin	0.33333333333333	0
bin	0.36666666666667	0
bin	0.4	0
bin	0.43333333333333	0
bin	0.46666666666667	0
bin	0.5	0
statistic BasicTopology.peer[6].bitTorrentApp.swarmManager 	ContentManager_100_percentDownloadMarkTime:histogram
field count 0
field mean 0
field stddev -nan
field sum 0
field sqrsum 0
field min 0
field max 0
attr title  "100% Download Time Ordinate, histogram"
attr unit  s
bin	-INF	0
bin	-0.5	0
bin	-0.46666666666667	0
bin	-0.43333333333333	0
bin	-0.4	0
bin	-0.36666666666667	0
bin	-0.33333333333333	0
bin	-0.3	0
bin	-0.26666666666667	0
bin	-0.23333333333333	0
bin	-0.2	0
bin	-0.16666666666667	0
bin	-0.13333333333333	0
bin	-0.1	0
bin	-0.066666666666667	0
bin	-0.033333333333333	0
bin	0	0
bin	0.033333333333333	0
bin	0.066666666666667	0
bin	0.1	0
bin	0.13333333333333	0
bin	0.16666666666667	0
bin	0.2	0
bin	0.23333333333333	0
bin	0.26666666666667	0
bin	0.3	0
bin	0.33333333333333	0
bin	0.36666666666667	0
bin	0.4	0
bin	0.43333333333333	0
bin	0.46666666666667	0
bin	0.5	0
statistic BasicTopology.peer[6].bitTorrentApp.swarmManager 	ContentManager_75_percentDownloadMarkTime:histogram
field count 0
field mean 0
field stddev -nan
field sum 0
field sqrsum 0
field min 0
field max 0
attr title  "75% Download Time Ordinate, histogram"
attr unit  s
bin	-INF	0
bin	-0.5	0
bin	-0.46666666666667	0
bin	-0.43333333333333	0
bin	-0.4	0
bin	-0.36666666666667	0
bin	-0.33333333333333	0
bin	-0.3	0
bin	-0.26666666666667	0
bin	-0.23333333333333	0
bin	-0.2	0
bin	-0.16666666666667	0
bin	-0.13333333333333	0
bin	-0.1	0
bin	-0.066666666666667	0
bin	-0.033333333333333	0
bin	0	0
bin	0.033333333333333	0
bin	0.066666666666667	0
bin	0.1	0
bin	0.13333333333333	0
bin	0.16666666666667	0
bin	0.2	0
bin	0.23333333333333	0
bin	0.26666666666667	0
bin	0.3	0
bin	0.33333333333333	0
bin	0.36666666666667	0
bin	0.4	0
bin	0.43333333333333	0
bin	0.46666666666667	0
bin	0.5	0
statistic BasicTopology.peer[6].bitTorrentApp.swarmManager 	ContentManager_50_percentDownloadMarkTime:histogram
field count 0
field mean 0
field stddev -nan
field sum 0
field sqrsum 0
field min 0
field max 0
attr title  "50% Download Time Ordinate, histogram"
attr unit  s
bin	-INF	0
bin	-0.5	0
bin	-0.46666666666667	0
bin	-0.43333333333333	0
bin	-0.4	0
bin	-0.36666666666667	0
bin	-0.33333333333333	0
bin	-0.3	0
bin	-0.26666666666667	0
bin	-0.23333333333333	0
bin	-0.2	0
bin	-0.16666666666667	0
bin	-0.13333333333333	0
bin	-0.1	0
bin	-0.066666666666667	0
bin	-0.033333333333333	0
bin	0	0
bin	0.033333333333333	0
bin	0.066666666666667	0
bin	0.1	0
bin	0.13333333333333	0
bin	0.16666666666667	0
bin	0.2	0
bin	0.23333333333333	0
bin	0.26666666666667	0
bin	0.3	0
bin	0.33333333333333	0
bin	0.36666666666667	0
bin	0.4	0
bin	0.43333333333333	0
bin	0.46666666666667	0
bin	0.5	0
statistic BasicTopology.peer[6].bitTorrentApp.swarmManager 	ContentManager_25_percentDownloadMarkTime:histogram
field count 0
field mean 0
field stddev -nan
field sum 0
field sqrsum 0
field min 0
field max 0
attr title  "25% Download Time Ordinate, histogram"
attr unit  s
bin	-INF	0
bin	-0.5	0
bin	-0.46666666666667	0
bin	-0.43333333333333	0
bin	-0.4	0
bin	-0.36666666666667	0
bin	-0.33333333333333	0
bin	-0.3	0
bin	-0.26666666666667	0
bin	-0.23333333333333	0
bin	-0.2	0
bin	-0.16666666666667	0
bin	-0.13333333333333	0
bin	-0.1	0
bin	-0.066666666666667	0
bin	-0.033333333333333	0
bin	0	0
bin	0.033333333333333	0
bin	0.066666666666667	0
bin	0.1	0
bin	0.13333333333333	0
bin	0.16666666666667	0
bin	0.2	0
bin	0.23333333333333	0
bin	0.26666666666667	0
bin	0.3	0
bin	0.33333333333333	0
bin	0.36666666666667	0
bin	0.4	0
bin	0.43333333333333	0
bin	0.46666666666667	0
bin	0.5	0
scalar BasicTopology.peer[6].bitTorrentApp.swarmManager 	SwarmManager_EnteredSwarm:last 	-nan
attr title  "Enter Swarm Instant, last"
scalar BasicTopology.peer[6].bitTorrentApp.bitTorrentClient.contentManager_26 	ContentManager_75_percentDownloadMarkTime:last 	-nan
attr title  "75% Download Time Ordinate, last"
attr unit  s
scalar BasicTopology.peer[6].bitTorrentApp.bitTorrentClient.contentManager_26 	ContentManager_50_percentDownloadMarkTime:last 	-nan
attr title  "50% Download Time Ordinate, last"
attr unit  s
scalar BasicTopology.peer[6].bitTorrentApp.bitTorrentClient.contentManager_26 	ContentManager_25_percentDownloadMarkTime:last 	-nan
attr title  "25% Download Time Ordinate, last"
attr unit  s
statistic BasicTopology.peer[6].bitTorrentApp.bitTorrentClient 	"Piece processing time histogram"
field count 2936
field mean 0.0073639305177112
field stddev 0.0099766190078884
field sum 21.6205
field sqrsum 0.451341
field min 0
field max 0.102482
bin	-INF	0
bin	0	936
bin	0.000909091	352
bin	0.001818182	155
bin	0.002727273	108
bin	0.003636364	126
bin	0.004545455	111
bin	0.005454546	58
bin	0.006363637	55
bin	0.007272728	27
bin	0.008181819	55
bin	0.00909091	55
bin	0.010000001	85
bin	0.010909092	81
bin	0.011818183	66
bin	0.012727274	70
bin	0.013636365	71
bin	0.014545456	54
bin	0.015454547	41
bin	0.016363638	49
bin	0.017272729	44
bin	0.01818182	40
bin	0.019090911	33
bin	0.020000002	31
bin	0.020909093	22
bin	0.021818184	27
bin	0.022727275	16
bin	0.023636366	16
bin	0.024545457	14
bin	0.025454548	15
bin	0.026363639	9
bin	0.02727273	11
bin	0.028181821	11
bin	0.029090912	5
bin	0.030000003	9
bin	0.030909094	9
bin	0.031818185	3
bin	0.032727276	5
bin	0.033636367	4
bin	0.034545458	4
bin	0.035454549	4
bin	0.03636364	1
bin	0.037272731	2
bin	0.038181822	4
bin	0.039090913	3
bin	0.040000004	2
bin	0.040909095	3
bin	0.041818186	3
bin	0.042727277	3
bin	0.043636368	0
bin	0.044545459	0
bin	0.04545455	2
bin	0.046363641	1
bin	0.047272732	0
bin	0.048181823	1
bin	0.049090914	2
bin	0.05	22
scalar BasicTopology.peer[7].networkLayer.arp 	failedResolution:count 	0
attr title  "ARP failed resolutions, count"
scalar BasicTopology.peer[7].networkLayer.arp 	initiatedResolution:count 	10
attr title  "ARP initiated resolutions, count"
scalar BasicTopology.peer[7].networkLayer.arp 	sentReplies:count 	0
attr title  "ARP replies sent, count"
scalar BasicTopology.peer[7].networkLayer.arp 	sentReq:count 	10
attr title  "ARP request sent, count"
scalar BasicTopology.peer[7].wlan[0].mgmt 	dropPkByQueue:count 	382
attr interpolationmode  none
attr source  dropPkByQueue
attr title  "packets dropped by queue, count"
scalar BasicTopology.peer[7].wlan[0].mgmt 	dropPkByQueue:sum(packetBytes) 	49431
attr interpolationmode  none
attr source  dropPkByQueue
attr title  "packets dropped by queue, sum(packetBytes)"
scalar BasicTopology.peer[7].wlan[0].mgmt 	dataQueueLen:max 	10
attr interpolationmode  sample-hold
attr title  "data queue length, max"
scalar BasicTopology.peer[7].wlan[0].mgmt 	dataQueueLen:timeavg 	0.046189578412
attr interpolationmode  sample-hold
attr title  "data queue length, timeavg"
scalar BasicTopology.peer[7].wlan[0].mac 	"number of received packets" 	42128
scalar BasicTopology.peer[7].wlan[0].mac 	"number of collisions" 	35250
scalar BasicTopology.peer[7].wlan[0].mac 	"number of internal collisions" 	0
scalar BasicTopology.peer[7].wlan[0].mac 	"number of retry for AC 0" 	13432
scalar BasicTopology.peer[7].wlan[0].mac 	"sent and receive bites" 	101742632
scalar BasicTopology.peer[7].wlan[0].mac 	"sent packet within AC 0" 	41975
scalar BasicTopology.peer[7].wlan[0].mac 	"sent in TXOP " 	0
scalar BasicTopology.peer[7].wlan[0].mac 	"sentWithoutRetry AC 0" 	34089
scalar BasicTopology.peer[7].wlan[0].mac 	"numGivenUp AC 0" 	62
scalar BasicTopology.peer[7].wlan[0].mac 	"numDropped AC 0" 	0
scalar BasicTopology.peer[7].wlan[0].radio 	lossRate:min 	0
attr interpolationmode  backward-sample-hold
attr title  "packet loss rate, min"
scalar BasicTopology.peer[7].wlan[0].radio 	lossRate:max 	0.5
attr interpolationmode  backward-sample-hold
attr title  "packet loss rate, max"
scalar BasicTopology.peer[7].wlan[0].radio 	lossRate:timeavg 	0.036274736517846
attr interpolationmode  backward-sample-hold
attr title  "packet loss rate, timeavg"
scalar BasicTopology.peer[7].wlan[0].radio 	radioState:count 	2414820
attr interpolationmode  sample-hold
attr title  "radio state (enum), count"
statistic BasicTopology.peer[7].wlan[0].radio 	channelNo:histogram
field count 0
field mean 0
field stddev -nan
field sum 0
field sqrsum 0
field min 0
field max 0
attr interpolationmode  sample-hold
attr title  "channel no, histogram"
bin	-INF	0
bin	-0.5	0
bin	-0.46666666666667	0
bin	-0.43333333333333	0
bin	-0.4	0
bin	-0.36666666666667	0
bin	-0.33333333333333	0
bin	-0.3	0
bin	-0.26666666666667	0
bin	-0.23333333333333	0
bin	-0.2	0
bin	-0.16666666666667	0
bin	-0.13333333333333	0
bin	-0.1	0
bin	-0.066666666666667	0
bin	-0.033333333333333	0
bin	0	0
bin	0.033333333333333	0
bin	0.066666666666667	0
bin	0.1	0
bin	0.13333333333333	0
bin	0.16666666666667	0
bin	0.2	0
bin	0.23333333333333	0
bin	0.26666666666667	0
bin	0.3	0
bin	0.33333333333333	0
bin	0.36666666666667	0
bin	0.4	0
bin	0.43333333333333	0
bin	0.46666666666667	0
bin	0.5	0
scalar BasicTopology.peer[7].wlan[0].radio 	bitrate:min 	-nan
attr interpolationmode  sample-hold
attr title  "tx bitrate, min"
attr unit  bps
scalar BasicTopology.peer[7].wlan[0].radio 	bitrate:max 	-nan
attr interpolationmode  sample-hold
attr title  "tx bitrate, max"
attr unit  bps
scalar BasicTopology.peer[7].wlan[0].radio 	bitrate:timeavg 	-nan
attr interpolationmode  sample-hold
attr title  "tx bitrate, timeavg"
attr unit  bps
statistic BasicTopology.peer[7].bitTorrentApp.swarmManager 	ContentManager_PieceDownloadTime:histogram
field count 0
field mean 0
field stddev -nan
field sum 0
field sqrsum 0
field min 0
field max 0
attr title  "Swarm Piece Download Time, histogram"
bin	-INF	0
bin	-0.5	0
bin	-0.46666666666667	0
bin	-0.43333333333333	0
bin	-0.4	0
bin	-0.36666666666667	0
bin	-0.33333333333333	0
bin	-0.3	0
bin	-0.26666666666667	0
bin	-0.23333333333333	0
bin	-0.2	0
bin	-0.16666666666667	0
bin	-0.13333333333333	0
bin	-0.1	0
bin	-0.066666666666667	0
bin	-0.033333333333333	0
bin	0	0
bin	0.033333333333333	0
bin	0.066666666666667	0
bin	0.1	0
bin	0.13333333333333	0
bin	0.16666666666667	0
bin	0.2	0
bin	0.23333333333333	0
bin	0.26666666666667	0
bin	0.3	0
bin	0.33333333333333	0
bin	0.36666666666667	0
bin	0.4	0
bin	0.43333333333333	0
bin	0.46666666666667	0
bin	0.5	0
statistic BasicTopology.peer[7].bitTorrentApp.swarmManager 	ContentManager_100_percentDownloadMarkTime:histogram
field count 0
field mean 0
field stddev -nan
field sum 0
field sqrsum 0
field min 0
field max 0
attr title  "100% Download Time Ordinate, histogram"
attr unit  s
bin	-INF	0
bin	-0.5	0
bin	-0.46666666666667	0
bin	-0.43333333333333	0
bin	-0.4	0
bin	-0.36666666666667	0
bin	-0.33333333333333	0
bin	-0.3	0
bin	-0.26666666666667	0
bin	-0.23333333333333	0
bin	-0.2	0
bin	-0.16666666666667	0
bin	-0.13333333333333	0
bin	-0.1	0
bin	-0.066666666666667	0
bin	-0.033333333333333	0
bin	0	0
bin	0.033333333333333	0
bin	0.066666666666667	0
bin	0.1	0
bin	0.13333333333333	0
bin	0.16666666666667	0
bin	0.2	0
bin	0.23333333333333	0
bin	0.26666666666667	0
bin	0.3	0
bin	0.33333333333333	0
bin	0.36666666666667	0
bin	0.4	0
bin	0.43333333333333	0
bin	0.46666666666667	0
bin	0.5	0
statistic BasicTopology.peer[7].bitTorrentApp.swarmManager 	ContentManager_75_percentDownloadMarkTime:histogram
field count 0
field mean 0
field stddev -nan
field sum 0
field sqrsum 0
field min 0
field max 0
attr title  "75% Download Time Ordinate, histogram"
attr unit  s
bin	-INF	0
bin	-0.5	0
bin	-0.46666666666667	0
bin	-0.43333333333333	0
bin	-0.4	0
bin	-0.36666666666667	0
bin	-0.33333333333333	0
bin	-0.3	0
bin	-0.26666666666667	0
bin	-0.23333333333333	0
bin	-0.2	0
bin	-0.16666666666667	0
bin	-0.13333333333333	0
bin	-0.1	0
bin	-0.066666666666667	0
bin	-0.033333333333333	0
bin	0	0
bin	0.033333333333333	0
bin	0.066666666666667	0
bin	0.1	0
bin	0.13333333333333	0
bin	0.16666666666667	0
bin	0.2	0
bin	0.23333333333333	0
bin	0.26666666666667	0
bin	0.3	0
bin	0.33333333333333	0
bin	0.36666666666667	0
bin	0.4	0
bin	0.43333333333333	0
bin	0.46666666666667	0
bin	0.5	0
statistic BasicTopology.peer[7].bitTorrentApp.swarmManager 	ContentManager_50_percentDownloadMarkTime:histogram
field count 0
field mean 0
field stddev -nan
field sum 0
field sqrsum 0
field min 0
field max 0
attr title  "50% Download Time Ordinate, histogram"
attr unit  s
bin	-INF	0
bin	-0.5	0
bin	-0.46666666666667	0
bin	-0.43333333333333	0
bin	-0.4	0
bin	-0.36666666666667	0
bin	-0.33333333333333	0
bin	-0.3	0
bin	-0.26666666666667	0
bin	-0.23333333333333	0
bin	-0.2	0
bin	-0.16666666666667	0
bin	-0.13333333333333	0
bin	-0.1	0
bin	-0.066666666666667	0
bin	-0.033333333333333	0
bin	0	0
bin	0.033333333333333	0
bin	0.066666666666667	0
bin	0.1	0
bin	0.13333333333333	0
bin	0.16666666666667	0
bin	0.2	0
bin	0.23333333333333	0
bin	0.26666666666667	0
bin	0.3	0
bin	0.33333333333333	0
bin	0.36666666666667	0
bin	0.4	0
bin	0.43333333333333	0
bin	0.46666666666667	0
bin	0.5	0
statistic BasicTopology.peer[7].bitTorrentApp.swarmManager 	ContentManager_25_percentDownloadMarkTime:histogram
field count 0
field mean 0
field stddev -nan
field sum 0
field sqrsum 0
field min 0
field max 0
attr title  "25% Download Time Ordinate, histogram"
attr unit  s
bin	-INF	0
bin	-0.5	0
bin	-0.46666666666667	0
bin	-0.43333333333333	0
bin	-0.4	0
bin	-0.36666666666667	0
bin	-0.33333333333333	0
bin	-0.3	0
bin	-0.26666666666667	0
bin	-0.23333333333333	0
bin	-0.2	0
bin	-0.16666666666667	0
bin	-0.13333333333333	0
bin	-0.1	0
bin	-0.066666666666667	0
bin	-0.033333333333333	0
bin	0	0
bin	0.033333333333333	0
bin	0.066666666666667	0
bin	0.1	0
bin	0.13333333333333	0
bin	0.16666666666667	0
bin	0.2	0
bin	0.23333333333333	0
bin	0.26666666666667	0
bin	0.3	0
bin	0.33333333333333	0
bin	0.36666666666667	0
bin	0.4	0
bin	0.43333333333333	0
bin	0.46666666666667	0
bin	0.5	0
scalar BasicTopology.peer[7].bitTorrentApp.swarmManager 	SwarmManager_EnteredSwarm:last 	-nan
attr title  "Enter Swarm Instant, last"
scalar BasicTopology.peer[7].bitTorrentApp.bitTorrentClient.contentManager_26 	ContentManager_75_percentDownloadMarkTime:last 	-nan
attr title  "75% Download Time Ordinate, last"
attr unit  s
scalar BasicTopology.peer[7].bitTorrentApp.bitTorrentClient.contentManager_26 	ContentManager_50_percentDownloadMarkTime:last 	-nan
attr title  "50% Download Time Ordinate, last"
attr unit  s
scalar BasicTopology.peer[7].bitTorrentApp.bitTorrentClient.contentManager_26 	ContentManager_25_percentDownloadMarkTime:last 	-nan
attr title  "25% Download Time Ordinate, last"
attr unit  s
statistic BasicTopology.peer[7].bitTorrentApp.bitTorrentClient 	"Piece processing time histogram"
field count 2936
field mean 0.0073639305177112
field stddev 0.0099766190078884
field sum 21.6205
field sqrsum 0.451341
field min 0
field max 0.102482
bin	-INF	0
bin	0	936
bin	0.000909091	352
bin	0.001818182	155
bin	0.002727273	108
bin	0.003636364	126
bin	0.004545455	111
bin	0.005454546	58
bin	0.006363637	55
bin	0.007272728	27
bin	0.008181819	55
bin	0.00909091	55
bin	0.010000001	85
bin	0.010909092	81
bin	0.011818183	66
bin	0.012727274	70
bin	0.013636365	71
bin	0.014545456	54
bin	0.015454547	41
bin	0.016363638	49
bin	0.017272729	44
bin	0.01818182	40
bin	0.019090911	33
bin	0.020000002	31
bin	0.020909093	22
[...]
field sqrsum 0
field min 0
field max 0
attr title  "Swarm Piece Download Time, histogram"
bin	-INF	0
bin	-0.5	0
bin	-0.46666666666667	0
bin	-0.43333333333333	0
bin	-0.4	0
bin	-0.36666666666667	0
bin	-0.33333333333333	0
bin	-0.3	0
bin	-0.26666666666667	0
bin	-0.23333333333333	0
bin	-0.2	0
bin	-0.16666666666667	0
bin	-0.13333333333333	0
bin	-0.1	0
bin	-0.066666666666667	0
bin	-0.033333333333333	0
bin	0	0
bin	0.033333333333333	0
bin	0.066666666666667	0
bin	0.1	0
bin	0.13333333333333	0
bin	0.16666666666667	0
bin	0.2	0
bin	0.23333333333333	0
bin	0.26666666666667	0
bin	0.3	0
bin	0.33333333333333	0
bin	0.36666666666667	0
bin	0.4	0
bin	0.43333333333333	0
bin	0.46666666666667	0
bin	0.5	0
statistic BasicTopology.peer[23].bitTorrentApp.swarmManager 	ContentManager_100_percentDownloadMarkTime:histogram
field count 0
field mean 0
field stddev -nan
field sum 0
field sqrsum 0
field min 0
field max 0
attr title  "100% Download Time Ordinate, histogram"
attr unit  s
bin	-INF	0
bin	-0.5	0
bin	-0.46666666666667	0
bin	-0.43333333333333	0
bin	-0.4	0
bin	-0.36666666666667	0
bin	-0.33333333333333	0
bin	-0.3	0
bin	-0.26666666666667	0
bin	-0.23333333333333	0
bin	-0.2	0
bin	-0.16666666666667	0
bin	-0.13333333333333	0
bin	-0.1	0
bin	-0.066666666666667	0
bin	-0.033333333333333	0
bin	0	0
bin	0.033333333333333	0
bin	0.066666666666667	0
bin	0.1	0
bin	0.13333333333333	0
bin	0.16666666666667	0
bin	0.2	0
bin	0.23333333333333	0
bin	0.26666666666667	0
bin	0.3	0
bin	0.33333333333333	0
bin	0.36666666666667	0
bin	0.4	0
bin	0.43333333333333	0
bin	0.46666666666667	0
bin	0.5	0
statistic BasicTopology.peer[23].bitTorrentApp.swarmManager 	ContentManager_75_percentDownloadMarkTime:histogram
field count 0
field mean 0
field stddev -nan
field sum 0
field sqrsum 0
field min 0
field max 0
attr title  "75% Download Time Ordinate, histogram"
attr unit  s
bin	-INF	0
bin	-0.5	0
bin	-0.46666666666667	0
bin	-0.43333333333333	0
bin	-0.4	0
bin	-0.36666666666667	0
bin	-0.33333333333333	0
bin	-0.3	0
bin	-0.26666666666667	0
bin	-0.23333333333333	0
bin	-0.2	0
bin	-0.16666666666667	0
bin	-0.13333333333333	0
bin	-0.1	0
bin	-0.066666666666667	0
bin	-0.033333333333333	0
bin	0	0
bin	0.033333333333333	0
bin	0.066666666666667	0
bin	0.1	0
bin	0.13333333333333	0
bin	0.16666666666667	0
bin	0.2	0
bin	0.23333333333333	0
bin	0.26666666666667	0
bin	0.3	0
bin	0.33333333333333	0
bin	0.36666666666667	0
bin	0.4	0
bin	0.43333333333333	0
bin	0.46666666666667	0
bin	0.5	0
statistic BasicTopology.peer[23].bitTorrentApp.swarmManager 	ContentManager_50_percentDownloadMarkTime:histogram
field count 0
field mean 0
field stddev -nan
field sum 0
field sqrsum 0
field min 0
field max 0
attr title  "50% Download Time Ordinate, histogram"
attr unit  s
bin	-INF	0
bin	-0.5	0
bin	-0.46666666666667	0
bin	-0.43333333333333	0
bin	-0.4	0
bin	-0.36666666666667	0
bin	-0.33333333333333	0
bin	-0.3	0
bin	-0.26666666666667	0
bin	-0.23333333333333	0
bin	-0.2	0
bin	-0.16666666666667	0
bin	-0.13333333333333	0
bin	-0.1	0
bin	-0.066666666666667	0
bin	-0.033333333333333	0
bin	0	0
bin	0.033333333333333	0
bin	0.066666666666667	0
bin	0.1	0
bin	0.13333333333333	0
bin	0.16666666666667	0
bin	0.2	0
bin	0.23333333333333	0
bin	0.26666666666667	0
bin	0.3	0
bin	0.33333333333333	0
bin	0.36666666666667	0
bin	0.4	0
bin	0.43333333333333	0
bin	0.46666666666667	0
bin	0.5	0
statistic BasicTopology.peer[23].bitTorrentApp.swarmManager 	ContentManager_25_percentDownloadMarkTime:histogram
field count 0
field mean 0
field stddev -nan
field sum 0
field sqrsum 0
field min 0
field max 0
attr title  "25% Download Time Ordinate, histogram"
attr unit  s
bin	-INF	0
bin	-0.5	0
bin	-0.46666666666667	0
bin	-0.43333333333333	0
bin	-0.4	0
bin	-0.36666666666667	0
bin	-0.33333333333333	0
bin	-0.3	0
bin	-0.26666666666667	0
bin	-0.23333333333333	0
bin	-0.2	0
bin	-0.16666666666667	0
bin	-0.13333333333333	0
bin	-0.1	0
bin	-0.066666666666667	0
bin	-0.033333333333333	0
bin	0	0
bin	0.033333333333333	0
bin	0.066666666666667	0
bin	0.1	0
bin	0.13333333333333	0
bin	0.16666666666667	0
bin	0.2	0
bin	0.23333333333333	0
bin	0.26666666666667	0
bin	0.3	0
bin	0.33333333333333	0
bin	0.36666666666667	0
bin	0.4	0
bin	0.43333333333333	0
bin	0.46666666666667	0
bin	0.5	0
scalar BasicTopology.peer[23].bitTorrentApp.swarmManager 	SwarmManager_EnteredSwarm:last 	-nan
attr title  "Enter Swarm Instant, last"
scalar BasicTopology.peer[23].bitTorrentApp.bitTorrentClient.contentManager_26 	ContentManager_75_percentDownloadMarkTime:last 	-nan
attr title  "75% Download Time Ordinate, last"
attr unit  s
scalar BasicTopology.peer[23].bitTorrentApp.bitTorrentClient.contentManager_26 	ContentManager_50_percentDownloadMarkTime:last 	-nan
attr title  "50% Download Time Ordinate, last"
attr unit  s
scalar BasicTopology.peer[23].bitTorrentApp.bitTorrentClient.contentManager_26 	ContentManager_25_percentDownloadMarkTime:last 	-nan
attr title  "25% Download Time Ordinate, last"
attr unit  s
statistic BasicTopology.peer[23].bitTorrentApp.bitTorrentClient 	"Piece processing time histogram"
field count 2936
field mean 0.0073639305177112
field stddev 0.0099766190078884
field sum 21.6205
field sqrsum 0.451341
field min 0
field max 0.102482
bin	-INF	0
bin	0	936
bin	0.000909091	352
bin	0.001818182	155
bin	0.002727273	108
bin	0.003636364	126
bin	0.004545455	111
bin	0.005454546	58
bin	0.006363637	55
bin	0.007272728	27
bin	0.008181819	55
bin	0.00909091	55
bin	0.010000001	85
bin	0.010909092	81
bin	0.011818183	66
bin	0.012727274	70
bin	0.013636365	71
bin	0.014545456	54
bin	0.015454547	41
bin	0.016363638	49
bin	0.017272729	44
bin	0.01818182	40
bin	0.019090911	33
bin	0.020000002	31
bin	0.020909093	22
bin	0.021818184	27
bin	0.022727275	16
bin	0.023636366	16
bin	0.024545457	14
bin	0.025454548	15
bin	0.026363639	9
bin	0.02727273	11
bin	0.028181821	11
bin	0.029090912	5
bin	0.030000003	9
bin	0.030909094	9
bin	0.031818185	3
bin	0.032727276	5
bin	0.033636367	4
bin	0.034545458	4
bin	0.035454549	4
bin	0.03636364	1
bin	0.037272731	2
bin	0.038181822	4
bin	0.039090913	3
bin	0.040000004	2
bin	0.040909095	3
bin	0.041818186	3
bin	0.042727277	3
bin	0.043636368	0
bin	0.044545459	0
bin	0.04545455	2
bin	0.046363641	1
bin	0.047272732	0
bin	0.048181823	1
bin	0.049090914	2
bin	0.05	22
scalar BasicTopology.peer[24].networkLayer.arp 	failedResolution:count 	0
attr title  "ARP failed resolutions, count"
scalar BasicTopology.peer[24].networkLayer.arp 	initiatedResolution:count 	5
attr title  "ARP initiated resolutions, count"
scalar BasicTopology.peer[24].networkLayer.arp 	sentReplies:count 	0
attr title  "ARP replies sent, count"
scalar BasicTopology.peer[24].networkLayer.arp 	sentReq:count 	5
attr title  "ARP request sent, count"
scalar BasicTopology.peer[24].wlan[0].mgmt 	dropPkByQueue:count 	1042
attr interpolationmode  none
attr source  dropPkByQueue
attr title  "packets dropped by queue, count"
scalar BasicTopology.peer[24].wlan[0].mgmt 	dropPkByQueue:sum(packetBytes) 	250394
attr interpolationmode  none
attr source  dropPkByQueue
attr title  "packets dropped by queue, sum(packetBytes)"
scalar BasicTopology.peer[24].wlan[0].mgmt 	dataQueueLen:max 	10
attr interpolationmode  sample-hold
attr title  "data queue length, max"
scalar BasicTopology.peer[24].wlan[0].mgmt 	dataQueueLen:timeavg 	0.41496849173608
attr interpolationmode  sample-hold
attr title  "data queue length, timeavg"
scalar BasicTopology.peer[24].wlan[0].mac 	"number of received packets" 	65463
scalar BasicTopology.peer[24].wlan[0].mac 	"number of collisions" 	46769
scalar BasicTopology.peer[24].wlan[0].mac 	"number of internal collisions" 	0
scalar BasicTopology.peer[24].wlan[0].mac 	"number of retry for AC 0" 	63141
scalar BasicTopology.peer[24].wlan[0].mac 	"sent and receive bites" 	164243288
scalar BasicTopology.peer[24].wlan[0].mac 	"sent packet within AC 0" 	63776
scalar BasicTopology.peer[24].wlan[0].mac 	"sent in TXOP " 	0
scalar BasicTopology.peer[24].wlan[0].mac 	"sentWithoutRetry AC 0" 	38854
scalar BasicTopology.peer[24].wlan[0].mac 	"numGivenUp AC 0" 	1546
scalar BasicTopology.peer[24].wlan[0].mac 	"numDropped AC 0" 	0
scalar BasicTopology.peer[24].wlan[0].radio 	lossRate:min 	0
attr interpolationmode  backward-sample-hold
attr title  "packet loss rate, min"
scalar BasicTopology.peer[24].wlan[0].radio 	lossRate:max 	0.52
attr interpolationmode  backward-sample-hold
attr title  "packet loss rate, max"
scalar BasicTopology.peer[24].wlan[0].radio 	lossRate:timeavg 	0.048637901532445
attr interpolationmode  backward-sample-hold
attr title  "packet loss rate, timeavg"
scalar BasicTopology.peer[24].wlan[0].radio 	radioState:count 	2886944
attr interpolationmode  sample-hold
attr title  "radio state (enum), count"
statistic BasicTopology.peer[24].wlan[0].radio 	channelNo:histogram
field count 0
field mean 0
field stddev -nan
field sum 0
field sqrsum 0
field min 0
field max 0
attr interpolationmode  sample-hold
attr title  "channel no, histogram"
bin	-INF	0
bin	-0.5	0
bin	-0.46666666666667	0
bin	-0.43333333333333	0
bin	-0.4	0
bin	-0.36666666666667	0
bin	-0.33333333333333	0
bin	-0.3	0
bin	-0.26666666666667	0
bin	-0.23333333333333	0
bin	-0.2	0
bin	-0.16666666666667	0
bin	-0.13333333333333	0
bin	-0.1	0
bin	-0.066666666666667	0
bin	-0.033333333333333	0
bin	0	0
bin	0.033333333333333	0
bin	0.066666666666667	0
bin	0.1	0
bin	0.13333333333333	0
bin	0.16666666666667	0
bin	0.2	0
bin	0.23333333333333	0
bin	0.26666666666667	0
bin	0.3	0
bin	0.33333333333333	0
bin	0.36666666666667	0
bin	0.4	0
bin	0.43333333333333	0
bin	0.46666666666667	0
bin	0.5	0
scalar BasicTopology.peer[24].wlan[0].radio 	bitrate:min 	-nan
attr interpolationmode  sample-hold
attr title  "tx bitrate, min"
attr unit  bps
scalar BasicTopology.peer[24].wlan[0].radio 	bitrate:max 	-nan
attr interpolationmode  sample-hold
attr title  "tx bitrate, max"
attr unit  bps
scalar BasicTopology.peer[24].wlan[0].radio 	bitrate:timeavg 	-nan
attr interpolationmode  sample-hold
attr title  "tx bitrate, timeavg"
attr unit  bps
statistic BasicTopology.peer[24].bitTorrentApp.swarmManager 	ContentManager_PieceDownloadTime:histogram
field count 0
field mean 0
field stddev -nan
field sum 0
field sqrsum 0
field min 0
field max 0
attr title  "Swarm Piece Download Time, histogram"
bin	-INF	0
bin	-0.5	0
bin	-0.46666666666667	0
bin	-0.43333333333333	0
bin	-0.4	0
bin	-0.36666666666667	0
bin	-0.33333333333333	0
bin	-0.3	0
bin	-0.26666666666667	0
bin	-0.23333333333333	0
bin	-0.2	0
bin	-0.16666666666667	0
bin	-0.13333333333333	0
bin	-0.1	0
bin	-0.066666666666667	0
bin	-0.033333333333333	0
bin	0	0
bin	0.033333333333333	0
bin	0.066666666666667	0
bin	0.1	0
bin	0.13333333333333	0
bin	0.16666666666667	0
bin	0.2	0
bin	0.23333333333333	0
bin	0.26666666666667	0
bin	0.3	0
bin	0.33333333333333	0
bin	0.36666666666667	0
bin	0.4	0
bin	0.43333333333333	0
bin	0.46666666666667	0
bin	0.5	0
statistic BasicTopology.peer[24].bitTorrentApp.swarmManager 	ContentManager_100_percentDownloadMarkTime:histogram
field count 0
field mean 0
field stddev -nan
field sum 0
field sqrsum 0
field min 0
field max 0
attr title  "100% Download Time Ordinate, histogram"
attr unit  s
bin	-INF	0
bin	-0.5	0
bin	-0.46666666666667	0
bin	-0.43333333333333	0
bin	-0.4	0
bin	-0.36666666666667	0
bin	-0.33333333333333	0
bin	-0.3	0
bin	-0.26666666666667	0
bin	-0.23333333333333	0
bin	-0.2	0
bin	-0.16666666666667	0
bin	-0.13333333333333	0
bin	-0.1	0
bin	-0.066666666666667	0
bin	-0.033333333333333	0
bin	0	0
bin	0.033333333333333	0
bin	0.066666666666667	0
bin	0.1	0
bin	0.13333333333333	0
bin	0.16666666666667	0
bin	0.2	0
bin	0.23333333333333	0
bin	0.26666666666667	0
bin	0.3	0
bin	0.33333333333333	0
bin	0.36666666666667	0
bin	0.4	0
bin	0.43333333333333	0
bin	0.46666666666667	0
bin	0.5	0
statistic BasicTopology.peer[24].bitTorrentApp.swarmManager 	ContentManager_75_percentDownloadMarkTime:histogram
field count 0
field mean 0
field stddev -nan
field sum 0
field sqrsum 0
field min 0
field max 0
attr title  "75% Download Time Ordinate, histogram"
attr unit  s
bin	-INF	0
bin	-0.5	0
bin	-0.46666666666667	0
bin	-0.43333333333333	0
bin	-0.4	0
bin	-0.36666666666667	0
bin	-0.33333333333333	0
bin	-0.3	0
bin	-0.26666666666667	0
bin	-0.23333333333333	0
bin	-0.2	0
bin	-0.16666666666667	0
bin	-0.13333333333333	0
bin	-0.1	0
bin	-0.066666666666667	0
bin	-0.033333333333333	0
bin	0	0
bin	0.033333333333333	0
bin	0.066666666666667	0
bin	0.1	0
bin	0.13333333333333	0
bin	0.16666666666667	0
bin	0.2	0
bin	0.23333333333333	0
bin	0.26666666666667	0
bin	0.3	0
bin	0.33333333333333	0
bin	0.36666666666667	0
bin	0.4	0
bin	0.43333333333333	0
bin	0.46666666666667	0
bin	0.5	0
statistic BasicTopology.peer[24].bitTorrentApp.swarmManager 	ContentManager_50_percentDownloadMarkTime:histogram
field count 0
field mean 0
field stddev -nan
field sum 0
field sqrsum 0
field min 0
field max 0
attr title  "50% Download Time Ordinate, histogram"
attr unit  s
bin	-INF	0
bin	-0.5	0
bin	-0.46666666666667	0
bin	-0.43333333333333	0
bin	-0.4	0
bin	-0.36666666666667	0
bin	-0.33333333333333	0
bin	-0.3	0
bin	-0.26666666666667	0
bin	-0.23333333333333	0
bin	-0.2	0
bin	-0.16666666666667	0
bin	-0.13333333333333	0
bin	-0.1	0
bin	-0.066666666666667	0
bin	-0.033333333333333	0
bin	0	0
bin	0.033333333333333	0
bin	0.066666666666667	0
bin	0.1	0
bin	0.13333333333333	0
bin	0.16666666666667	0
bin	0.2	0
bin	0.23333333333333	0
bin	0.26666666666667	0
bin	0.3	0
bin	0.33333333333333	0
bin	0.36666666666667	0
bin	0.4	0
bin	0.43333333333333	0
bin	0.46666666666667	0
bin	0.5	0
statistic BasicTopology.peer[24].bitTorrentApp.swarmManager 	ContentManager_25_percentDownloadMarkTime:histogram
field count 0
field mean 0
field stddev -nan
field sum 0
field sqrsum 0
field min 0
field max 0
attr title  "25% Download Time Ordinate, histogram"
attr unit  s
bin	-INF	0
bin	-0.5	0
bin	-0.46666666666667	0
bin	-0.43333333333333	0
bin	-0.4	0
bin	-0.36666666666667	0
bin	-0.33333333333333	0
bin	-0.3	0
bin	-0.26666666666667	0
bin	-0.23333333333333	0
bin	-0.2	0
bin	-0.16666666666667	0
bin	-0.13333333333333	0
bin	-0.1	0
bin	-0.066666666666667	0
bin	-0.033333333333333	0
bin	0	0
bin	0.033333333333333	0
bin	0.066666666666667	0
bin	0.1	0
bin	0.13333333333333	0
bin	0.16666666666667	0
bin	0.2	0
bin	0.23333333333333	0
bin	0.26666666666667	0
bin	0.3	0
bin	0.33333333333333	0
bin	0.36666666666667	0
bin	0.4	0
bin	0.43333333333333	0
bin	0.46666666666667	0
bin	0.5	0
scalar BasicTopology.peer[24].bitTorrentApp.swarmManager 	SwarmManager_EnteredSwarm:last 	-nan
attr title  "Enter Swarm Instant, last"
scalar BasicTopology.peer[24].bitTorrentApp.bitTorrentClient.contentManager_26 	ContentManager_75_percentDownloadMarkTime:last 	-nan
attr title  "75% Download Time Ordinate, last"
attr unit  s
scalar BasicTopology.peer[24].bitTorrentApp.bitTorrentClient.contentManager_26 	ContentManager_50_percentDownloadMarkTime:last 	-nan
attr title  "50% Download Time Ordinate, last"
attr unit  s
scalar BasicTopology.peer[24].bitTorrentApp.bitTorrentClient.contentManager_26 	ContentManager_25_percentDownloadMarkTime:last 	-nan
attr title  "25% Download Time Ordinate, last"
attr unit  s
statistic BasicTopology.peer[24].bitTorrentApp.bitTorrentClient 	"Piece processing time histogram"
field count 2936
field mean 0.0073639305177112
field stddev 0.0099766190078884
field sum 21.6205
field sqrsum 0.451341
field min 0
field max 0.102482
bin	-INF	0
bin	0	936
bin	0.000909091	352
bin	0.001818182	155
bin	0.002727273	108
bin	0.003636364	126
bin	0.004545455	111
bin	0.005454546	58
bin	0.006363637	55
bin	0.007272728	27
bin	0.008181819	55
bin	0.00909091	55
bin	0.010000001	85
bin	0.010909092	81
bin	0.011818183	66
bin	0.012727274	70
bin	0.013636365	71
bin	0.014545456	54
bin	0.015454547	41
bin	0.016363638	49
bin	0.017272729	44
bin	0.01818182	40
bin	0.019090911	33
bin	0.020000002	31
bin	0.020909093	22
bin	0.021818184	27
bin	0.022727275	16
bin	0.023636366	16
bin	0.024545457	14
bin	0.025454548	15
bin	0.026363639	9
bin	0.02727273	11
bin	0.028181821	11
bin	0.029090912	5
bin	0.030000003	9
bin	0.030909094	9
bin	0.031818185	3
bin	0.032727276	5
bin	0.033636367	4
bin	0.034545458	4
bin	0.035454549	4
bin	0.03636364	1
bin	0.037272731	2
bin	0.038181822	4
bin	0.039090913	3
bin	0.040000004	2
bin	0.040909095	3
bin	0.041818186	3
bin	0.042727277	3
bin	0.043636368	0
bin	0.044545459	0
bin	0.04545455	2
bin	0.046363641	1
bin	0.047272732	0
bin	0.048181823	1
bin	0.049090914	2
bin	0.05	22
scalar BasicTopology.tracker.networkLayer.arp 	failedResolution:count 	0
attr title  "ARP failed resolutions, count"
scalar BasicTopology.tracker.networkLayer.arp 	initiatedResolution:count 	0
attr title  "ARP initiated resolutions, count"
scalar BasicTopology.tracker.networkLayer.arp 	sentReplies:count 	0
attr title  "ARP replies sent, count"
scalar BasicTopology.tracker.networkLayer.arp 	sentReq:count 	0
attr title  "ARP request sent, count"
scalar BasicTopology.tracker.wlan[0].mgmt 	dropPkByQueue:count 	0
attr interpolationmode  none
attr source  dropPkByQueue
attr title  "packets dropped by queue, count"
scalar BasicTopology.tracker.wlan[0].mgmt 	dropPkByQueue:sum(packetBytes) 	0
attr interpolationmode  none
attr source  dropPkByQueue
attr title  "packets dropped by queue, sum(packetBytes)"
scalar BasicTopology.tracker.wlan[0].mgmt 	dataQueueLen:max 	-nan
attr interpolationmode  sample-hold
attr title  "data queue length, max"
scalar BasicTopology.tracker.wlan[0].mgmt 	dataQueueLen:timeavg 	-nan
attr interpolationmode  sample-hold
attr title  "data queue length, timeavg"
scalar BasicTopology.tracker.wlan[0].mac 	"number of received packets" 	0
scalar BasicTopology.tracker.wlan[0].mac 	"number of collisions" 	0
scalar BasicTopology.tracker.wlan[0].mac 	"number of internal collisions" 	0
scalar BasicTopology.tracker.wlan[0].mac 	"number of retry for AC 0" 	0
scalar BasicTopology.tracker.wlan[0].mac 	"sent and receive bites" 	0
scalar BasicTopology.tracker.wlan[0].mac 	"sent packet within AC 0" 	0
scalar BasicTopology.tracker.wlan[0].mac 	"sent in TXOP " 	0
scalar BasicTopology.tracker.wlan[0].mac 	"sentWithoutRetry AC 0" 	0
scalar BasicTopology.tracker.wlan[0].mac 	"numGivenUp AC 0" 	0
scalar BasicTopology.tracker.wlan[0].mac 	"numDropped AC 0" 	0
scalar BasicTopology.tracker.wlan[0].radio 	lossRate:min 	-nan
attr interpolationmode  backward-sample-hold
attr title  "packet loss rate, min"
scalar BasicTopology.tracker.wlan[0].radio 	lossRate:max 	-nan
attr interpolationmode  backward-sample-hold
attr title  "packet loss rate, max"
scalar BasicTopology.tracker.wlan[0].radio 	lossRate:timeavg 	-nan
attr interpolationmode  backward-sample-hold
attr title  "packet loss rate, timeavg"
scalar BasicTopology.tracker.wlan[0].radio 	radioState:count 	0
attr interpolationmode  sample-hold
attr title  "radio state (enum), count"
statistic BasicTopology.tracker.wlan[0].radio 	channelNo:histogram
field count 0
field mean 0
field stddev -nan
field sum 0
field sqrsum 0
field min 0
field max 0
attr interpolationmode  sample-hold
attr title  "channel no, histogram"
bin	-INF	0
bin	-0.5	0
bin	-0.46666666666667	0
bin	-0.43333333333333	0
bin	-0.4	0
bin	-0.36666666666667	0
bin	-0.33333333333333	0
bin	-0.3	0
bin	-0.26666666666667	0
bin	-0.23333333333333	0
bin	-0.2	0
bin	-0.16666666666667	0
bin	-0.13333333333333	0
bin	-0.1	0
bin	-0.066666666666667	0
bin	-0.033333333333333	0
bin	0	0
bin	0.033333333333333	0
bin	0.066666666666667	0
bin	0.1	0
bin	0.13333333333333	0
bin	0.16666666666667	0
bin	0.2	0
bin	0.23333333333333	0
bin	0.26666666666667	0
bin	0.3	0
bin	0.33333333333333	0
bin	0.36666666666667	0
bin	0.4	0
bin	0.43333333333333	0
bin	0.46666666666667	0
bin	0.5	0
scalar BasicTopology.tracker.wlan[0].radio 	bitrate:min 	-nan
attr interpolationmode  sample-hold
attr title  "tx bitrate, min"
attr unit  bps
scalar BasicTopology.tracker.wlan[0].radio 	bitrate:max 	-nan
attr interpolationmode  sample-hold
attr title  "tx bitrate, max"
attr unit  bps
scalar BasicTopology.tracker.wlan[0].radio 	bitrate:timeavg 	-nan
attr interpolationmode  sample-hold
attr title  "tx bitrate, timeavg"
attr unit  bps
scalar BasicTopology 	PieceSent:count 	4817
attr source  BitTorrentClient_PieceSent
attr title  "Sum of Pieces sent, count"
