version 2
run Test-2-20200526-14:52:00-7014
attr configname Test
attr datetime 20200526-14:52:00
attr experiment "\"Simulation Test\""
attr inifile BasicConfig.ini
attr iterationvars ""
attr iterationvars2 $repetition=2
attr measurement "\"Peers: $peers, Rate: $rate\""
attr network BasicTopology
attr processid 7014
attr repetition 2
attr replication #2
attr resultdir results
attr runnumber 2
attr seedset 2

scalar BasicTopology.peer[0].networkLayer.arp 	failedResolution:count 	0
attr title  "ARP failed resolutions, count"
scalar BasicTopology.peer[0].networkLayer.arp 	initiatedResolution:count 	4
attr title  "ARP initiated resolutions, count"
scalar BasicTopology.peer[0].networkLayer.arp 	sentReplies:count 	0
attr title  "ARP replies sent, count"
scalar BasicTopology.peer[0].networkLayer.arp 	sentReq:count 	4
attr title  "ARP request sent, count"
scalar BasicTopology.peer[0].wlan[0].mgmt 	dropPkByQueue:count 	156
attr interpolationmode  none
attr source  dropPkByQueue
attr title  "packets dropped by queue, count"
scalar BasicTopology.peer[0].wlan[0].mgmt 	dropPkByQueue:sum(packetBytes) 	78384
attr interpolationmode  none
attr source  dropPkByQueue
attr title  "packets dropped by queue, sum(packetBytes)"
scalar BasicTopology.peer[0].wlan[0].mgmt 	dataQueueLen:max 	10
attr interpolationmode  sample-hold
attr title  "data queue length, max"
scalar BasicTopology.peer[0].wlan[0].mgmt 	dataQueueLen:timeavg 	0.12831403533351
attr interpolationmode  sample-hold
attr title  "data queue length, timeavg"
scalar BasicTopology.peer[0].wlan[0].mac 	"number of received packets" 	17740
scalar BasicTopology.peer[0].wlan[0].mac 	"number of collisions" 	4067
scalar BasicTopology.peer[0].wlan[0].mac 	"number of internal collisions" 	0
scalar BasicTopology.peer[0].wlan[0].mac 	"number of retry for AC 0" 	17538
scalar BasicTopology.peer[0].wlan[0].mac 	"sent and receive bites" 	82323416
scalar BasicTopology.peer[0].wlan[0].mac 	"sent packet within AC 0" 	18748
scalar BasicTopology.peer[0].wlan[0].mac 	"sent in TXOP " 	0
scalar BasicTopology.peer[0].wlan[0].mac 	"sentWithoutRetry AC 0" 	11099
scalar BasicTopology.peer[0].wlan[0].mac 	"numGivenUp AC 0" 	172
scalar BasicTopology.peer[0].wlan[0].mac 	"numDropped AC 0" 	0
scalar BasicTopology.peer[0].wlan[0].radio 	lossRate:min 	0
attr interpolationmode  backward-sample-hold
attr title  "packet loss rate, min"
scalar BasicTopology.peer[0].wlan[0].radio 	lossRate:max 	0.14
attr interpolationmode  backward-sample-hold
attr title  "packet loss rate, max"
scalar BasicTopology.peer[0].wlan[0].radio 	lossRate:timeavg 	0.0062078829352027
attr interpolationmode  backward-sample-hold
attr title  "packet loss rate, timeavg"
scalar BasicTopology.peer[0].wlan[0].radio 	radioState:count 	1401526
attr interpolationmode  sample-hold
attr title  "radio state (enum), count"
statistic BasicTopology.peer[0].wlan[0].radio 	channelNo:histogram
field count 0
field mean 0
field stddev -nan
field sum 0
field sqrsum 0
field min 0
field max 0
attr interpolationmode  sample-hold
attr title  "channel no, histogram"
bin	-INF	0
bin	-0.5	0
bin	-0.46666666666667	0
bin	-0.43333333333333	0
bin	-0.4	0
bin	-0.36666666666667	0
bin	-0.33333333333333	0
bin	-0.3	0
bin	-0.26666666666667	0
bin	-0.23333333333333	0
bin	-0.2	0
bin	-0.16666666666667	0
bin	-0.13333333333333	0
bin	-0.1	0
bin	-0.066666666666667	0
bin	-0.033333333333333	0
bin	0	0
bin	0.033333333333333	0
bin	0.066666666666667	0
bin	0.1	0
bin	0.13333333333333	0
bin	0.16666666666667	0
bin	0.2	0
bin	0.23333333333333	0
bin	0.26666666666667	0
bin	0.3	0
bin	0.33333333333333	0
bin	0.36666666666667	0
bin	0.4	0
bin	0.43333333333333	0
bin	0.46666666666667	0
bin	0.5	0
scalar BasicTopology.peer[0].wlan[0].radio 	bitrate:min 	-nan
attr interpolationmode  sample-hold
attr title  "tx bitrate, min"
attr unit  bps
scalar BasicTopology.peer[0].wlan[0].radio 	bitrate:max 	-nan
attr interpolationmode  sample-hold
attr title  "tx bitrate, max"
attr unit  bps
scalar BasicTopology.peer[0].wlan[0].radio 	bitrate:timeavg 	-nan
attr interpolationmode  sample-hold
attr title  "tx bitrate, timeavg"
attr unit  bps
statistic BasicTopology.peer[0].bitTorrentApp.swarmManager 	ContentManager_PieceDownloadTime:histogram
field count 0
field mean 0
field stddev -nan
field sum 0
field sqrsum 0
field min 0
field max 0
attr title  "Swarm Piece Download Time, histogram"
bin	-INF	0
bin	-0.5	0
bin	-0.46666666666667	0
bin	-0.43333333333333	0
bin	-0.4	0
bin	-0.36666666666667	0
bin	-0.33333333333333	0
bin	-0.3	0
bin	-0.26666666666667	0
bin	-0.23333333333333	0
bin	-0.2	0
bin	-0.16666666666667	0
bin	-0.13333333333333	0
bin	-0.1	0
bin	-0.066666666666667	0
bin	-0.033333333333333	0
bin	0	0
bin	0.033333333333333	0
bin	0.066666666666667	0
bin	0.1	0
bin	0.13333333333333	0
bin	0.16666666666667	0
bin	0.2	0
bin	0.23333333333333	0
bin	0.26666666666667	0
bin	0.3	0
bin	0.33333333333333	0
bin	0.36666666666667	0
bin	0.4	0
bin	0.43333333333333	0
bin	0.46666666666667	0
bin	0.5	0
statistic BasicTopology.peer[0].bitTorrentApp.swarmManager 	ContentManager_100_percentDownloadMarkTime:histogram
field count 0
field mean 0
field stddev -nan
field sum 0
field sqrsum 0
field min 0
field max 0
attr title  "100% Download Time Ordinate, histogram"
attr unit  s
bin	-INF	0
bin	-0.5	0
bin	-0.46666666666667	0
bin	-0.43333333333333	0
bin	-0.4	0
bin	-0.36666666666667	0
bin	-0.33333333333333	0
bin	-0.3	0
bin	-0.26666666666667	0
bin	-0.23333333333333	0
bin	-0.2	0
bin	-0.16666666666667	0
bin	-0.13333333333333	0
bin	-0.1	0
bin	-0.066666666666667	0
bin	-0.033333333333333	0
bin	0	0
bin	0.033333333333333	0
bin	0.066666666666667	0
bin	0.1	0
bin	0.13333333333333	0
bin	0.16666666666667	0
bin	0.2	0
bin	0.23333333333333	0
bin	0.26666666666667	0
bin	0.3	0
bin	0.33333333333333	0
bin	0.36666666666667	0
bin	0.4	0
bin	0.43333333333333	0
bin	0.46666666666667	0
bin	0.5	0
statistic BasicTopology.peer[0].bitTorrentApp.swarmManager 	ContentManager_75_percentDownloadMarkTime:histogram
field count 0
field mean 0
field stddev -nan
field sum 0
field sqrsum 0
field min 0
field max 0
attr title  "75% Download Time Ordinate, histogram"
attr unit  s
bin	-INF	0
bin	-0.5	0
bin	-0.46666666666667	0
bin	-0.43333333333333	0
bin	-0.4	0
bin	-0.36666666666667	0
bin	-0.33333333333333	0
bin	-0.3	0
bin	-0.26666666666667	0
bin	-0.23333333333333	0
bin	-0.2	0
bin	-0.16666666666667	0
bin	-0.13333333333333	0
bin	-0.1	0
bin	-0.066666666666667	0
bin	-0.033333333333333	0
bin	0	0
bin	0.033333333333333	0
bin	0.066666666666667	0
bin	0.1	0
bin	0.13333333333333	0
bin	0.16666666666667	0
bin	0.2	0
bin	0.23333333333333	0
bin	0.26666666666667	0
bin	0.3	0
bin	0.33333333333333	0
bin	0.36666666666667	0
bin	0.4	0
bin	0.43333333333333	0
bin	0.46666666666667	0
bin	0.5	0
statistic BasicTopology.peer[0].bitTorrentApp.swarmManager 	ContentManager_50_percentDownloadMarkTime:histogram
field count 0
field mean 0
field stddev -nan
field sum 0
field sqrsum 0
field min 0
field max 0
attr title  "50% Download Time Ordinate, histogram"
attr unit  s
bin	-INF	0
bin	-0.5	0
bin	-0.46666666666667	0
bin	-0.43333333333333	0
bin	-0.4	0
bin	-0.36666666666667	0
bin	-0.33333333333333	0
bin	-0.3	0
bin	-0.26666666666667	0
bin	-0.23333333333333	0
bin	-0.2	0
bin	-0.16666666666667	0
bin	-0.13333333333333	0
bin	-0.1	0
bin	-0.066666666666667	0
bin	-0.033333333333333	0
bin	0	0
bin	0.033333333333333	0
bin	0.066666666666667	0
bin	0.1	0
bin	0.13333333333333	0
bin	0.16666666666667	0
bin	0.2	0
bin	0.23333333333333	0
bin	0.26666666666667	0
bin	0.3	0
bin	0.33333333333333	0
bin	0.36666666666667	0
bin	0.4	0
bin	0.43333333333333	0
bin	0.46666666666667	0
bin	0.5	0
statistic BasicTopology.peer[0].bitTorrentApp.swarmManager 	ContentManager_25_percentDownloadMarkTime:histogram
field count 0
field mean 0
field stddev -nan
field sum 0
field sqrsum 0
field min 0
field max 0
attr title  "25% Download Time Ordinate, histogram"
attr unit  s
bin	-INF	0
bin	-0.5	0
bin	-0.46666666666667	0
bin	-0.43333333333333	0
bin	-0.4	0
bin	-0.36666666666667	0
bin	-0.33333333333333	0
bin	-0.3	0
bin	-0.26666666666667	0
bin	-0.23333333333333	0
bin	-0.2	0
bin	-0.16666666666667	0
bin	-0.13333333333333	0
bin	-0.1	0
bin	-0.066666666666667	0
bin	-0.033333333333333	0
bin	0	0
bin	0.033333333333333	0
bin	0.066666666666667	0
bin	0.1	0
bin	0.13333333333333	0
bin	0.16666666666667	0
bin	0.2	0
bin	0.23333333333333	0
bin	0.26666666666667	0
bin	0.3	0
bin	0.33333333333333	0
bin	0.36666666666667	0
bin	0.4	0
bin	0.43333333333333	0
bin	0.46666666666667	0
bin	0.5	0
scalar BasicTopology.peer[0].bitTorrentApp.swarmManager 	SwarmManager_EnteredSwarm:last 	-nan
attr title  "Enter Swarm Instant, last"
scalar BasicTopology.peer[0].bitTorrentApp.bitTorrentClient.contentManager_26 	ContentManager_75_percentDownloadMarkTime:last 	-nan
attr title  "75% Download Time Ordinate, last"
attr unit  s
scalar BasicTopology.peer[0].bitTorrentApp.bitTorrentClient.contentManager_26 	ContentManager_50_percentDownloadMarkTime:last 	-nan
attr title  "50% Download Time Ordinate, last"
attr unit  s
scalar BasicTopology.peer[0].bitTorrentApp.bitTorrentClient.contentManager_26 	ContentManager_25_percentDownloadMarkTime:last 	-nan
attr title  "25% Download Time Ordinate, last"
attr unit  s
statistic BasicTopology.peer[0].bitTorrentApp.bitTorrentClient 	"Piece processing time histogram"
field count 2936
field mean 0.0073639305177112
field stddev 0.0099766190078884
field sum 21.6205
field sqrsum 0.451341
field min 0
field max 0.102482
bin	-INF	0
bin	0	936
bin	0.000909091	352
bin	0.001818182	155
bin	0.002727273	108
bin	0.003636364	126
bin	0.004545455	111
bin	0.005454546	58
bin	0.006363637	55
bin	0.007272728	27
bin	0.008181819	55
bin	0.00909091	55
bin	0.010000001	85
bin	0.010909092	81
bin	0.011818183	66
bin	0.012727274	70
bin	0.013636365	71
bin	0.014545456	54
bin	0.015454547	41
bin	0.016363638	49
bin	0.017272729	44
bin	0.01818182	40
bin	0.019090911	33
bin	0.020000002	31
bin	0.020909093	22
bin	0.021818184	27
bin	0.022727275	16
bin	0.023636366	16
bin	0.024545457	14
bin	0.025454548	15
bin	0.026363639	9
bin	0.02727273	11
bin	0.028181821	11
bin	0.029090912	5
bin	0.030000003	9
bin	0.030909094	9
bin	0.031818185	3
bin	0.032727276	5
bin	0.033636367	4
bin	0.034545458	4
bin	0.035454549	4
bin	0.03636364	1
bin	0.037272731	2
bin	0.038181822	4
bin	0.039090913	3
bin	0.040000004	2
bin	0.040909095	3
bin	0.041818186	3
bin	0.042727277	3
bin	0.043636368	0
bin	0.044545459	0
bin	0.04545455	2
bin	0.046363641	1
bin	0.047272732	0
bin	0.048181823	1
bin	0.049090914	2
bin	0.05	22
scalar BasicTopology.peer[1].networkLayer.arp 	failedResolution:count 	0
attr title  "ARP failed resolutions, count"
scalar BasicTopology.peer[1].networkLayer.arp 	initiatedResolution:count 	8
attr title  "ARP initiated resolutions, count"
scalar BasicTopology.peer[1].networkLayer.arp 	sentReplies:count 	0
attr title  "ARP replies sent, count"
scalar BasicTopology.peer[1].networkLayer.arp 	sentReq:count 	8
attr title  "ARP request sent, count"
scalar BasicTopology.peer[1].wlan[0].mgmt 	dropPkByQueue:count 	628
attr interpolationmode  none
attr source  dropPkByQueue
attr title  "packets dropped by queue, count"
scalar BasicTopology.peer[1].wlan[0].mgmt 	dropPkByQueue:sum(packetBytes) 	185753
attr interpolationmode  none
attr source  dropPkByQueue
attr title  "packets dropped by queue, sum(packetBytes)"
scalar BasicTopology.peer[1].wlan[0].mgmt 	dataQueueLen:max 	10
attr interpolationmode  sample-hold
attr title  "data queue length, max"
scalar BasicTopology.peer[1].wlan[0].mgmt 	dataQueueLen:timeavg 	0.27343800615657
attr interpolationmode  sample-hold
attr title  "data queue length, timeavg"
scalar BasicTopology.peer[1].wlan[0].mac 	"number of received packets" 	48067
scalar BasicTopology.peer[1].wlan[0].mac 	"number of collisions" 	37767
scalar BasicTopology.peer[1].wlan[0].mac 	"number of internal collisions" 	0
scalar BasicTopology.peer[1].wlan[0].mac 	"number of retry for AC 0" 	30645
scalar BasicTopology.peer[1].wlan[0].mac 	"sent and receive bites" 	135910288
scalar BasicTopology.peer[1].wlan[0].mac 	"sent packet within AC 0" 	48081
scalar BasicTopology.peer[1].wlan[0].mac 	"sent in TXOP " 	0
scalar BasicTopology.peer[1].wlan[0].mac 	"sentWithoutRetry AC 0" 	34405
scalar BasicTopology.peer[1].wlan[0].mac 	"numGivenUp AC 0" 	662
scalar BasicTopology.peer[1].wlan[0].mac 	"numDropped AC 0" 	0
scalar BasicTopology.peer[1].wlan[0].radio 	lossRate:min 	0
attr interpolationmode  backward-sample-hold
attr title  "packet loss rate, min"
scalar BasicTopology.peer[1].wlan[0].radio 	lossRate:max 	0.6
attr interpolationmode  backward-sample-hold
attr title  "packet loss rate, max"
scalar BasicTopology.peer[1].wlan[0].radio 	lossRate:timeavg 	0.047100486159441
attr interpolationmode  backward-sample-hold
attr title  "packet loss rate, timeavg"
scalar BasicTopology.peer[1].wlan[0].radio 	radioState:count 	2219982
attr interpolationmode  sample-hold
attr title  "radio state (enum), count"
statistic BasicTopology.peer[1].wlan[0].radio 	channelNo:histogram
field count 0
field mean 0
field stddev -nan
field sum 0
field sqrsum 0
field min 0
field max 0
attr interpolationmode  sample-hold
attr title  "channel no, histogram"
bin	-INF	0
bin	-0.5	0
bin	-0.46666666666667	0
bin	-0.43333333333333	0
bin	-0.4	0
bin	-0.36666666666667	0
bin	-0.33333333333333	0
bin	-0.3	0
bin	-0.26666666666667	0
bin	-0.23333333333333	0
bin	-0.2	0
bin	-0.16666666666667	0
bin	-0.13333333333333	0
bin	-0.1	0
bin	-0.066666666666667	0
bin	-0.033333333333333	0
bin	0	0
bin	0.033333333333333	0
bin	0.066666666666667	0
bin	0.1	0
bin	0.13333333333333	0
bin	0.16666666666667	0
bin	0.2	0
bin	0.23333333333333	0
bin	0.26666666666667	0
bin	0.3	0
bin	0.33333333333333	0
bin	0.36666666666667	0
bin	0.4	0
bin	0.43333333333333	0
bin	0.46666666666667	0
bin	0.5	0
scalar BasicTopology.peer[1].wlan[0].radio 	bitrate:min 	-nan
attr interpolationmode  sample-hold
attr title  "tx bitrate, min"
attr unit  bps
scalar BasicTopology.peer[1].wlan[0].radio 	bitrate:max 	-nan
attr interpolationmode  sample-hold
attr title  "tx bitrate, max"
attr unit  bps
scalar BasicTopology.peer[1].wlan[0].radio 	bitrate:timeavg 	-nan
attr interpolationmode  sample-hold
attr title  "tx bitrate, timeavg"
attr unit  bps
statistic BasicTopology.peer[1].bitTorrentApp.swarmManager 	ContentManager_PieceDownloadTime:histogram
field count 0
field mean 0
field stddev -nan
field sum 0
field sqrsum 0
field min 0
field max 0
attr title  "Swarm Piece Download Time, histogram"
bin	-INF	0
bin	-0.5	0
bin	-0.46666666666667	0
bin	-0.43333333333333	0
bin	-0.4	0
bin	-0.36666666666667	0
bin	-0.33333333333333	0
bin	-0.3	0
bin	-0.26666666666667	0
bin	-0.23333333333333	0
bin	-0.2	0
bin	-0.16666666666667	0
bin	-0.13333333333333	0
bin	-0.1	0
bin	-0.066666666666667	0
bin	-0.033333333333333	0
bin	0	0
bin	0.033333333333333	0
bin	0.066666666666667	0
bin	0.1	0
bin	0.13333333333333	0
bin	0.16666666666667	0
bin	0.2	0
bin	0.23333333333333	0
bin	0.26666666666667	0
bin	0.3	0
bin	0.33333333333333	0
bin	0.36666666666667	0
bin	0.4	0
bin	0.43333333333333	0
bin	0.46666666666667	0
bin	0.5	0
statistic BasicTopology.peer[1].bitTorrentApp.swarmManager 	ContentManager_100_percentDownloadMarkTime:histogram
field count 0
field mean 0
field stddev -nan
field sum 0
field sqrsum 0
field min 0
field max 0
attr title  "100% Download Time Ordinate, histogram"
attr unit  s
bin	-INF	0
bin	-0.5	0
bin	-0.46666666666667	0
bin	-0.43333333333333	0
bin	-0.4	0
bin	-0.36666666666667	0
bin	-0.33333333333333	0
bin	-0.3	0
bin	-0.26666666666667	0
bin	-0.23333333333333	0
bin	-0.2	0
bin	-0.16666666666667	0
bin	-0.13333333333333	0
bin	-0.1	0
bin	-0.066666666666667	0
bin	-0.033333333333333	0
bin	0	0
bin	0.033333333333333	0
bin	0.066666666666667	0
bin	0.1	0
bin	0.13333333333333	0
bin	0.16666666666667	0
bin	0.2	0
bin	0.23333333333333	0
bin	0.26666666666667	0
bin	0.3	0
bin	0.33333333333333	0
bin	0.36666666666667	0
bin	0.4	0
bin	0.43333333333333	0
bin	0.46666666666667	0
bin	0.5	0
statistic BasicTopology.peer[1].bitTorrentApp.swarmManager 	ContentManager_75_percentDownloadMarkTime:histogram
field count 0
field mean 0
field stddev -nan
field sum 0
field sqrsum 0
field min 0
field max 0
attr title  "75% Download Time Ordinate, histogram"
attr unit  s
bin	-INF	0
bin	-0.5	0
bin	-0.46666666666667	0
bin	-0.43333333333333	0
bin	-0.4	0
bin	-0.36666666666667	0
bin	-0.33333333333333	0
bin	-0.3	0
bin	-0.26666666666667	0
bin	-0.23333333333333	0
bin	-0.2	0
bin	-0.16666666666667	0
bin	-0.13333333333333	0
bin	-0.1	0
bin	-0.066666666666667	0
bin	-0.033333333333333	0
bin	0	0
bin	0.033333333333333	0
bin	0.066666666666667	0
bin	0.1	0
bin	0.13333333333333	0
bin	0.16666666666667	0
bin	0.2	0
bin	0.23333333333333	0
bin	0.26666666666667	0
bin	0.3	0
bin	0.33333333333333	0
bin	0.36666666666667	0
bin	0.4	0
bin	0.43333333333333	0
bin	0.46666666666667	0
bin	0.5	0
statistic BasicTopology.peer[1].bitTorrentApp.swarmManager 	ContentManager_50_percentDownloadMarkTime:histogram
field count 0
field mean 0
field stddev -nan
field sum 0
field sqrsum 0
field min 0
field max 0
attr title  "50% Download Time Ordinate, histogram"
attr unit  s
bin	-INF	0
bin	-0.5	0
bin	-0.46666666666667	0
bin	-0.43333333333333	0
bin	-0.4	0
bin	-0.36666666666667	0
bin	-0.33333333333333	0
bin	-0.3	0
bin	-0.26666666666667	0
bin	-0.23333333333333	0
bin	-0.2	0
bin	-0.16666666666667	0
bin	-0.13333333333333	0
bin	-0.1	0
bin	-0.066666666666667	0
bin	-0.033333333333333	0
bin	0	0
bin	0.033333333333333	0
bin	0.066666666666667	0
bin	0.1	0
bin	0.13333333333333	0
bin	0.16666666666667	0
bin	0.2	0
bin	0.23333333333333	0
bin	0.26666666666667	0
bin	0.3	0
bin	0.33333333333333	0
bin	0.36666666666667	0
bin	0.4	0
bin	0.43333333333333	0
bin	0.46666666666667	0
bin	0.5	0
statistic BasicTopology.peer[1].bitTorrentApp.swarmManager 	ContentManager_25_percentDownloadMarkTime:histogram
field count 0
field mean 0
field stddev -nan
field sum 0
field sqrsum 0
field min 0
field max 0
attr title  "25% Download Time Ordinate, histogram"
attr unit  s
bin	-INF	0
bin	-0.5	0
bin	-0.46666666666667	0
bin	-0.43333333333333	0
bin	-0.4	0
bin	-0.36666666666667	0
bin	-0.33333333333333	0
bin	-0.3	0
bin	-0.26666666666667	0
bin	-0.23333333333333	0
bin	-0.2	0
bin	-0.16666666666667	0
bin	-0.13333333333333	0
bin	-0.1	0
bin	-0.066666666666667	0
bin	-0.033333333333333	0
bin	0	0
bin	0.033333333333333	0
bin	0.066666666666667	0
bin	0.1	0
bin	0.13333333333333	0
bin	0.16666666666667	0
bin	0.2	0
bin	0.23333333333333	0
bin	0.26666666666667	0
bin	0.3	0
bin	0.33333333333333	0
bin	0.36666666666667	0
bin	0.4	0
bin	0.43333333333333	0
bin	0.46666666666667	0
bin	0.5	0
scalar BasicTopology.peer[1].bitTorrentApp.swarmManager 	SwarmManager_EnteredSwarm:last 	-nan
attr title  "Enter Swarm Instant, last"
scalar BasicTopology.peer[1].bitTorrentApp.bitTorrentClient.contentManager_26 	ContentManager_75_percentDownloadMarkTime:last 	-nan
attr title  "75% Download Time Ordinate, last"
attr unit  s
scalar BasicTopology.peer[1].bitTorrentApp.bitTorrentClient.contentManager_26 	ContentManager_50_percentDownloadMarkTime:last 	-nan
attr title  "50% Download Time Ordinate, last"
attr unit  s
scalar BasicTopology.peer[1].bitTorrentApp.bitTorrentClient.contentManager_26 	ContentManager_25_percentDownloadMarkTime:last 	-nan
attr title  "25% Download Time Ordinate, last"
attr unit  s
statistic BasicTopology.peer[1].bitTorrentApp.bitTorrentClient 	"Piece processing time histogram"
field count 2936
field mean 0.0073639305177112
field stddev 0.0099766190078884
field sum 21.6205
field sqrsum 0.451341
field min 0
field max 0.102482
bin	-INF	0
bin	0	936
bin	0.000909091	352
bin	0.001818182	155
bin	0.002727273	108
bin	0.003636364	126
bin	0.004545455	111
bin	0.005454546	58
bin	0.006363637	55
bin	0.007272728	27
bin	0.008181819	55
bin	0.00909091	55
bin	0.010000001	85
bin	0.010909092	81
bin	0.011818183	66
bin	0.012727274	70
bin	0.013636365	71
bin	0.014545456	54
bin	0.015454547	41
bin	0.016363638	49
bin	0.017272729	44
bin	0.01818182	40
bin	0.019090911	33
bin	0.020000002	31
bin	0.020909093	22
bin	0.021818184	27
bin	0.022727275	16
bin	0.023636366	16
bin	0.024545457	14
bin	0.025454548	15
bin	0.026363639	9
bin	0.02727273	11
bin	0.028181821	11
bin	0.029090912	5
bin	0.030000003	9
bin	0.030909094	9
bin	0.031818185	3
bin	0.032727276	5
bin	0.033636367	4
bin	0.034545458	4
bin	0.035454549	4
bin	0.03636364	1
bin	0.037272731	2
bin	0.038181822	4
bin	0.039090913	3
bin	0.040000004	2
bin	0.040909095	3
bin	0.041818186	3
bin	0.042727277	3
bin	0.043636368	0
bin	0.044545459	0
bin	0.04545455	2
bin	0.046363641	1
bin	0.047272732	0
bin	0.048181823	1
bin	0.049090914	2
bin	0.05	22
scalar BasicTopology.peer[2].networkLayer.arp 	failedResolution:count 	0
attr title  "ARP failed resolutions, count"
scalar BasicTopology.peer[2].networkLayer.arp 	initiatedResolution:count 	6
attr title  "ARP initiated resolutions, count"
scalar BasicTopology.peer[2].networkLayer.arp 	sentReplies:count 	0
attr title  "ARP replies sent, count"
scalar BasicTopology.peer[2].networkLayer.arp 	sentReq:count 	6
attr title  "ARP request sent, count"
scalar BasicTopology.peer[2].wlan[0].mgmt 	dropPkByQueue:count 	572
attr interpolationmode  none
attr source  dropPkByQueue
attr title  "packets dropped by queue, count"
scalar BasicTopology.peer[2].wlan[0].mgmt 	dropPkByQueue:sum(packetBytes) 	106623
attr interpolationmode  none
attr source  dropPkByQueue
attr title  "packets dropped by queue, sum(packetBytes)"
scalar BasicTopology.peer[2].wlan[0].mgmt 	dataQueueLen:max 	10
attr interpolationmode  sample-hold
attr title  "data queue length, max"
scalar BasicTopology.peer[2].wlan[0].mgmt 	dataQueueLen:timeavg 	0.22565715084061
attr interpolationmode  sample-hold
attr title  "data queue length, timeavg"
scalar BasicTopology.peer[2].wlan[0].mac 	"number of received packets" 	44194
scalar BasicTopology.peer[2].wlan[0].mac 	"number of collisions" 	48623
scalar BasicTopology.peer[2].wlan[0].mac 	"number of internal collisions" 	0
scalar BasicTopology.peer[2].wlan[0].mac 	"number of retry for AC 0" 	33884
scalar BasicTopology.peer[2].wlan[0].mac 	"sent and receive bites" 	105001624
scalar BasicTopology.peer[2].wlan[0].mac 	"sent packet within AC 0" 	43861
scalar BasicTopology.peer[2].wlan[0].mac 	"sent in TXOP " 	0
scalar BasicTopology.peer[2].wlan[0].mac 	"sentWithoutRetry AC 0" 	28802
scalar BasicTopology.peer[2].wlan[0].mac 	"numGivenUp AC 0" 	628
scalar BasicTopology.peer[2].wlan[0].mac 	"numDropped AC 0" 	0
scalar BasicTopology.peer[2].wlan[0].radio 	lossRate:min 	0
attr interpolationmode  backward-sample-hold
attr title  "packet loss rate, min"
scalar BasicTopology.peer[2].wlan[0].radio 	lossRate:max 	0.54
attr interpolationmode  backward-sample-hold
attr title  "packet loss rate, max"
scalar BasicTopology.peer[2].wlan[0].radio 	lossRate:timeavg 	0.047555116228088
attr interpolationmode  backward-sample-hold
attr title  "packet loss rate, timeavg"
scalar BasicTopology.peer[2].wlan[0].radio 	radioState:count 	2533578
attr interpolationmode  sample-hold
attr title  "radio state (enum), count"
statistic BasicTopology.peer[2].wlan[0].radio 	channelNo:histogram
field count 0
field mean 0
field stddev -nan
field sum 0
field sqrsum 0
field min 0
field max 0
attr interpolationmode  sample-hold
attr title  "channel no, histogram"
bin	-INF	0
bin	-0.5	0
bin	-0.46666666666667	0
bin	-0.43333333333333	0
bin	-0.4	0
bin	-0.36666666666667	0
bin	-0.33333333333333	0
bin	-0.3	0
bin	-0.26666666666667	0
bin	-0.23333333333333	0
bin	-0.2	0
bin	-0.16666666666667	0
bin	-0.13333333333333	0
bin	-0.1	0
bin	-0.066666666666667	0
bin	-0.033333333333333	0
bin	0	0
bin	0.033333333333333	0
bin	0.066666666666667	0
bin	0.1	0
bin	0.13333333333333	0
bin	0.16666666666667	0
bin	0.2	0
bin	0.23333333333333	0
bin	0.26666666666667	0
bin	0.3	0
bin	0.33333333333333	0
bin	0.36666666666667	0
bin	0.4	0
bin	0.43333333333333	0
bin	0.46666666666667	0
bin	0.5	0
scalar BasicTopology.peer[2].wlan[0].radio 	bitrate:min 	-nan
attr interpolationmode  sample-hold
attr title  "tx bitrate, min"
attr unit  bps
scalar BasicTopology.peer[2].wlan[0].radio 	bitrate:max 	-nan
attr interpolationmode  sample-hold
attr title  "tx bitrate, max"
attr unit  bps
scalar BasicTopology.peer[2].wlan[0].radio 	bitrate:timeavg 	-nan
attr interpolationmode  sample-hold
attr title  "tx bitrate, timeavg"
attr unit  bps
statistic BasicTopology.peer[2].bitTorrentApp.swarmManager 	ContentManager_PieceDownloadTime:histogram
field count 0
field mean 0
field stddev -nan
field sum 0
field sqrsum 0
field min 0
field max 0
attr title  "Swarm Piece Download Time, histogram"
bin	-INF	0
bin	-0.5	0
bin	-0.46666666666667	0
bin	-0.43333333333333	0
bin	-0.4	0
bin	-0.36666666666667	0
bin	-0.33333333333333	0
bin	-0.3	0
bin	-0.26666666666667	0
bin	-0.23333333333333	0
bin	-0.2	0
bin	-0.16666666666667	0
bin	-0.13333333333333	0
bin	-0.1	0
bin	-0.066666666666667	0
bin	-0.033333333333333	0
bin	0	0
bin	0.033333333333333	0
bin	0.066666666666667	0
bin	0.1	0
bin	0.13333333333333	0
bin	0.16666666666667	0
bin	0.2	0
bin	0.23333333333333	0
bin	0.26666666666667	0
bin	0.3	0
bin	0.33333333333333	0
bin	0.36666666666667	0
bin	0.4	0
bin	0.43333333333333	0
bin	0.46666666666667	0
bin	0.5	0
statistic BasicTopology.peer[2].bitTorrentApp.swarmManager 	ContentManager_100_percentDownloadMarkTime:histogram
field count 0
field mean 0
field stddev -nan
field sum 0
field sqrsum 0
field min 0
field max 0
attr title  "100% Download Time Ordinate, histogram"
attr unit  s
bin	-INF	0
bin	-0.5	0
bin	-0.46666666666667	0
bin	-0.43333333333333	0
bin	-0.4	0
bin	-0.36666666666667	0
bin	-0.33333333333333	0
bin	-0.3	0
bin	-0.26666666666667	0
bin	-0.23333333333333	0
bin	-0.2	0
bin	-0.16666666666667	0
bin	-0.13333333333333	0
bin	-0.1	0
bin	-0.066666666666667	0
bin	-0.033333333333333	0
bin	0	0
bin	0.033333333333333	0
bin	0.066666666666667	0
bin	0.1	0
bin	0.13333333333333	0
bin	0.16666666666667	0
bin	0.2	0
bin	0.23333333333333	0
bin	0.26666666666667	0
bin	0.3	0
bin	0.33333333333333	0
bin	0.36666666666667	0
bin	0.4	0
bin	0.43333333333333	0
bin	0.46666666666667	0
bin	0.5	0
statistic BasicTopology.peer[2].bitTorrentApp.swarmManager 	ContentManager_75_percentDownloadMarkTime:histogram
field count 0
field mean 0
field stddev -nan
field sum 0
field sqrsum 0
field min 0
field max 0
attr title  "75% Download Time Ordinate, histogram"
attr unit  s
bin	-INF	0
bin	-0.5	0
bin	-0.46666666666667	0
bin	-0.43333333333333	0
bin	-0.4	0
bin	-0.36666666666667	0
bin	-0.33333333333333	0
bin	-0.3	0
bin	-0.26666666666667	0
bin	-0.23333333333333	0
bin	-0.2	0
bin	-0.16666666666667	0
bin	-0.13333333333333	0
bin	-0.1	0
bin	-0.066666666666667	0
bin	-0.033333333333333	0
bin	0	0
bin	0.033333333333333	0
bin	0.066666666666667	0
bin	0.1	0
bin	0.13333333333333	0
bin	0.16666666666667	0
bin	0.2	0
bin	0.23333333333333	0
bin	0.26666666666667	0
bin	0.3	0
bin	0.33333333333333	0
bin	0.36666666666667	0
bin	0.4	0
bin	0.43333333333333	0
bin	0.46666666666667	0
bin	0.5	0
statistic BasicTopology.peer[2].bitTorrentApp.swarmManager 	ContentManager_50_percentDownloadMarkTime:histogram
field count 0
field mean 0
field stddev -nan
field sum 0
field sqrsum 0
field min 0
field max 0
attr title  "50% Download Time Ordinate, histogram"
attr unit  s
bin	-INF	0
bin	-0.5	0
bin	-0.46666666666667	0
bin	-0.43333333333333	0
bin	-0.4	0
bin	-0.36666666666667	0
bin	-0.33333333333333	0
bin	-0.3	0
bin	-0.26666666666667	0
bin	-0.23333333333333	0
bin	-0.2	0
bin	-0.16666666666667	0
bin	-0.13333333333333	0
bin	-0.1	0
bin	-0.066666666666667	0
bin	-0.033333333333333	0
bin	0	0
bin	0.033333333333333	0
bin	0.066666666666667	0
bin	0.1	0
bin	0.13333333333333	0
bin	0.16666666666667	0
bin	0.2	0
bin	0.23333333333333	0
bin	0.26666666666667	0
bin	0.3	0
bin	0.33333333333333	0
bin	0.36666666666667	0
bin	0.4	0
bin	0.43333333333333	0
bin	0.46666666666667	0
bin	0.5	0
statistic BasicTopology.peer[2].bitTorrentApp.swarmManager 	ContentManager_25_percentDownloadMarkTime:histogram
field count 0
field mean 0
field stddev -nan
field sum 0
field sqrsum 0
field min 0
field max 0
attr title  "25% Download Time Ordinate, histogram"
attr unit  s
bin	-INF	0
bin	-0.5	0
bin	-0.46666666666667	0
bin	-0.43333333333333	0
bin	-0.4	0
bin	-0.36666666666667	0
bin	-0.33333333333333	0
bin	-0.3	0
bin	-0.26666666666667	0
bin	-0.23333333333333	0
bin	-0.2	0
bin	-0.16666666666667	0
bin	-0.13333333333333	0
bin	-0.1	0
bin	-0.066666666666667	0
bin	-0.033333333333333	0
bin	0	0
bin	0.033333333333333	0
bin	0.066666666666667	0
bin	0.1	0
bin	0.13333333333333	0
bin	0.16666666666667	0
bin	0.2	0
bin	0.23333333333333	0
bin	0.26666666666667	0
bin	0.3	0
bin	0.33333333333333	0
bin	0.36666666666667	0
bin	0.4	0
bin	0.43333333333333	0
bin	0.46666666666667	0
bin	0.5	0
scalar BasicTopology.peer[2].bitTorrentApp.swarmManager 	SwarmManager_EnteredSwarm:last 	-nan
attr title  "Enter Swarm Instant, last"
scalar BasicTopology.peer[2].bitTorrentApp.bitTorrentClient.contentManager_26 	ContentManager_75_percentDownloadMarkTime:last 	-nan
attr title  "75% Download Time Ordinate, last"
attr unit  s
scalar BasicTopology.peer[2].bitTorrentApp.bitTorrentClient.contentManager_26 	ContentManager_50_percentDownloadMarkTime:last 	-nan
attr title  "50% Download Time Ordinate, last"
attr unit  s
scalar BasicTopology.peer[2].bitTorrentApp.bitTorrentClient.contentManager_26 	ContentManager_25_percentDownloadMarkTime:last 	-nan
attr title  "25% Download Time Ordinate, last"
attr unit  s
statistic BasicTopology.peer[2].bitTorrentApp.bitTorrentClient 	"Piece processing time histogram"
field count 2936
field mean 0.0073639305177112
field stddev 0.0099766190078884
field sum 21.6205
field sqrsum 0.451341
field min 0
field max 0.102482
bin	-INF	0
bin	0	936
bin	0.000909091	352
bin	0.001818182	155
bin	0.002727273	108
bin	0.003636364	126
bin	0.004545455	111
bin	0.005454546	58
bin	0.006363637	55
bin	0.007272728	27
bin	0.008181819	55
bin	0.00909091	55
bin	0.010000001	85
bin	0.010909092	81
bin	0.011818183	66
bin	0.012727274	70
bin	0.013636365	71
bin	0.014545456	54
bin	0.015454547	41
bin	0.016363638	49
bin	0.017272729	44
bin	0.01818182	40
bin	0.019090911	33
bin	0.020000002	31
bin	0.020909093	22
bin	0.021818184	27
bin	0.022727275	16
bin	0.023636366	16
bin	0.024545457	14
bin	0.025454548	15
bin	0.026363639	9
bin	0.02727273	11
bin	0.028181821	11
bin	0.029090912	5
bin	0.030000003	9
bin	0.030909094	9
bin	0.031818185	3
bin	0.032727276	5
bin	0.033636367	4
bin	0.034545458	4
bin	0.035454549	4
bin	0.03636364	1
bin	0.037272731	2
bin	0.038181822	4
bin	0.039090913	3
bin	0.040000004	2
bin	0.040909095	3
bin	0.041818186	3
bin	0.042727277	3
bin	0.043636368	0
bin	0.044545459	0
bin	0.04545455	2
bin	0.046363641	1
bin	0.047272732	0
bin	0.048181823	1
bin	0.049090914	2
bin	0.05	22
scalar BasicTopology.peer[3].networkLayer.arp 	failedResolution:count 	0
attr title  "ARP failed resolutions, count"
scalar BasicTopology.peer[3].networkLayer.arp 	initiatedResolution:count 	8
attr title  "ARP initiated resolutions, count"
scalar BasicTopology.peer[3].networkLayer.arp 	sentReplies:count 	0
attr title  "ARP replies sent, count"
scalar BasicTopology.peer[3].networkLayer.arp 	sentReq:count 	9
attr title  "ARP request sent, count"
scalar BasicTopology.peer[3].wlan[0].mgmt 	dropPkByQueue:count 	897
attr interpolationmode  none
attr source  dropPkByQueue
attr title  "packets dropped by queue, count"
scalar BasicTopology.peer[3].wlan[0].mgmt 	dropPkByQueue:sum(packetBytes) 	290884
attr interpolationmode  none
attr source  dropPkByQueue
attr title  "packets dropped by queue, sum(packetBytes)"
scalar BasicTopology.peer[3].wlan[0].mgmt 	dataQueueLen:max 	10
attr interpolationmode  sample-hold
attr title  "data queue length, max"
scalar BasicTopology.peer[3].wlan[0].mgmt 	dataQueueLen:timeavg 	0.41634132710436
attr interpolationmode  sample-hold
attr title  "data queue length, timeavg"
scalar BasicTopology.peer[3].wlan[0].mac 	"number of received packets" 	49866
scalar BasicTopology.peer[3].wlan[0].mac 	"number of collisions" 	74744
scalar BasicTopology.peer[3].wlan[0].mac 	"number of internal collisions" 	0
scalar BasicTopology.peer[3].wlan[0].mac 	"number of retry for AC 0" 	44119
scalar BasicTopology.peer[3].wlan[0].mac 	"sent and receive bites" 	146314568
scalar BasicTopology.peer[3].wlan[0].mac 	"sent packet within AC 0" 	49593
scalar BasicTopology.peer[3].wlan[0].mac 	"sent in TXOP " 	0
scalar BasicTopology.peer[3].wlan[0].mac 	"sentWithoutRetry AC 0" 	31133
scalar BasicTopology.peer[3].wlan[0].mac 	"numGivenUp AC 0" 	968
scalar BasicTopology.peer[3].wlan[0].mac 	"numDropped AC 0" 	0
scalar BasicTopology.peer[3].wlan[0].radio 	lossRate:min 	0
attr interpolationmode  backward-sample-hold
attr title  "packet loss rate, min"
scalar BasicTopology.peer[3].wlan[0].radio 	lossRate:max 	0.58
attr interpolationmode  backward-sample-hold
attr title  "packet loss rate, max"
scalar BasicTopology.peer[3].wlan[0].radio 	lossRate:timeavg 	0.067610282865397
attr interpolationmode  backward-sample-hold
attr title  "packet loss rate, timeavg"
scalar BasicTopology.peer[3].wlan[0].radio 	radioState:count 	3098518
attr interpolationmode  sample-hold
attr title  "radio state (enum), count"
statistic BasicTopology.peer[3].wlan[0].radio 	channelNo:histogram
field count 0
field mean 0
field stddev -nan
field sum 0
field sqrsum 0
field min 0
field max 0
attr interpolationmode  sample-hold
attr title  "channel no, histogram"
bin	-INF	0
bin	-0.5	0
bin	-0.46666666666667	0
bin	-0.43333333333333	0
bin	-0.4	0
bin	-0.36666666666667	0
bin	-0.33333333333333	0
bin	-0.3	0
bin	-0.26666666666667	0
bin	-0.23333333333333	0
bin	-0.2	0
bin	-0.16666666666667	0
bin	-0.13333333333333	0
bin	-0.1	0
bin	-0.066666666666667	0
bin	-0.033333333333333	0
bin	0	0
bin	0.033333333333333	0
bin	0.066666666666667	0
bin	0.1	0
bin	0.13333333333333	0
bin	0.16666666666667	0
bin	0.2	0
bin	0.23333333333333	0
bin	0.26666666666667	0
bin	0.3	0
bin	0.33333333333333	0
bin	0.36666666666667	0
bin	0.4	0
bin	0.43333333333333	0
bin	0.46666666666667	0
bin	0.5	0
scalar BasicTopology.peer[3].wlan[0].radio 	bitrate:min 	-nan
attr interpolationmode  sample-hold
attr title  "tx bitrate, min"
attr unit  bps
scalar BasicTopology.peer[3].wlan[0].radio 	bitrate:max 	-nan
attr interpolationmode  sample-hold
attr title  "tx bitrate, max"
attr unit  bps
scalar BasicTopology.peer[3].wlan[0].radio 	bitrate:timeavg 	-nan
attr interpolationmode  sample-hold
attr title  "tx bitrate, timeavg"
attr unit  bps
statistic BasicTopology.peer[3].bitTorrentApp.swarmManager 	ContentManager_PieceDownloadTime:histogram
field count 0
field mean 0
field stddev -nan
field sum 0
field sqrsum 0
field min 0
field max 0
attr title  "Swarm Piece Download Time, histogram"
bin	-INF	0
bin	-0.5	0
bin	-0.46666666666667	0
bin	-0.43333333333333	0
bin	-0.4	0
bin	-0.36666666666667	0
bin	-0.33333333333333	0
bin	-0.3	0
bin	-0.26666666666667	0
bin	-0.23333333333333	0
bin	-0.2	0
bin	-0.16666666666667	0
bin	-0.13333333333333	0
bin	-0.1	0
bin	-0.066666666666667	0
bin	-0.033333333333333	0
bin	0	0
bin	0.033333333333333	0
bin	0.066666666666667	0
bin	0.1	0
bin	0.13333333333333	0
bin	0.16666666666667	0
bin	0.2	0
bin	0.23333333333333	0
bin	0.26666666666667	0
bin	0.3	0
bin	0.33333333333333	0
bin	0.36666666666667	0
bin	0.4	0
bin	0.43333333333333	0
bin	0.46666666666667	0
bin	0.5	0
statistic BasicTopology.peer[3].bitTorrentApp.swarmManager 	ContentManager_100_percentDownloadMarkTime:histogram
field count 0
field mean 0
field stddev -nan
field sum 0
field sqrsum 0
field min 0
field max 0
attr title  "100% Download Time Ordinate, histogram"
attr unit  s
bin	-INF	0
bin	-0.5	0
bin	-0.46666666666667	0
bin	-0.43333333333333	0
bin	-0.4	0
bin	-0.36666666666667	0
bin	-0.33333333333333	0
bin	-0.3	0
bin	-0.26666666666667	0
bin	-0.23333333333333	0
bin	-0.2	0
bin	-0.16666666666667	0
bin	-0.13333333333333	0
bin	-0.1	0
bin	-0.066666666666667	0
bin	-0.033333333333333	0
bin	0	0
bin	0.033333333333333	0
bin	0.066666666666667	0
bin	0.1	0
bin	0.13333333333333	0
bin	0.16666666666667	0
bin	0.2	0
bin	0.23333333333333	0
bin	0.26666666666667	0
bin	0.3	0
bin	0.33333333333333	0
bin	0.36666666666667	0
bin	0.4	0
bin	0.43333333333333	0
bin	0.46666666666667	0
bin	0.5	0
statistic BasicTopology.peer[3].bitTorrentApp.swarmManager 	ContentManager_75_percentDownloadMarkTime:histogram
field count 0
field mean 0
field stddev -nan
field sum 0
field sqrsum 0
field min 0
field max 0
attr title  "75% Download Time Ordinate, histogram"
attr unit  s
bin	-INF	0
bin	-0.5	0
bin	-0.46666666666667	0
bin	-0.43333333333333	0
bin	-0.4	0
bin	-0.36666666666667	0
bin	-0.33333333333333	0
bin	-0.3	0
bin	-0.26666666666667	0
bin	-0.23333333333333	0
bin	-0.2	0
bin	-0.16666666666667	0
bin	-0.13333333333333	0
bin	-0.1	0
bin	-0.066666666666667	0
bin	-0.033333333333333	0
bin	0	0
bin	0.033333333333333	0
bin	0.066666666666667	0
bin	0.1	0
bin	0.13333333333333	0
bin	0.16666666666667	0
bin	0.2	0
bin	0.23333333333333	0
bin	0.26666666666667	0
bin	0.3	0
bin	0.33333333333333	0
bin	0.36666666666667	0
bin	0.4	0
bin	0.43333333333333	0
bin	0.46666666666667	0
bin	0.5	0
statistic BasicTopology.peer[3].bitTorrentApp.swarmManager 	ContentManager_50_percentDownloadMarkTime:histogram
field count 0
field mean 0
field stddev -nan
field sum 0
field sqrsum 0
field min 0
field max 0
attr title  "50% Download Time Ordinate, histogram"
attr unit  s
bin	-INF	0
bin	-0.5	0
bin	-0.46666666666667	0
bin	-0.43333333333333	0
bin	-0.4	0
bin	-0.36666666666667	0
bin	-0.33333333333333	0
bin	-0.3	0
bin	-0.26666666666667	0
bin	-0.23333333333333	0
bin	-0.2	0
bin	-0.16666666666667	0
bin	-0.13333333333333	0
bin	-0.1	0
bin	-0.066666666666667	0
bin	-0.033333333333333	0
bin	0	0
bin	0.033333333333333	0
bin	0.066666666666667	0
bin	0.1	0
bin	0.13333333333333	0
bin	0.16666666666667	0
bin	0.2	0
bin	0.23333333333333	0
bin	0.26666666666667	0
bin	0.3	0
bin	0.33333333333333	0
bin	0.36666666666667	0
bin	0.4	0
bin	0.43333333333333	0
bin	0.46666666666667	0
bin	0.5	0
statistic BasicTopology.peer[3].bitTorrentApp.swarmManager 	ContentManager_25_percentDownloadMarkTime:histogram
field count 0
field mean 0
field stddev -nan
field sum 0
field sqrsum 0
field min 0
field max 0
attr title  "25% Download Time Ordinate, histogram"
attr unit  s
bin	-INF	0
bin	-0.5	0
bin	-0.46666666666667	0
bin	-0.43333333333333	0
bin	-0.4	0
bin	-0.36666666666667	0
bin	-0.33333333333333	0
bin	-0.3	0
bin	-0.26666666666667	0
bin	-0.23333333333333	0
bin	-0.2	0
bin	-0.16666666666667	0
bin	-0.13333333333333	0
bin	-0.1	0
bin	-0.066666666666667	0
bin	-0.033333333333333	0
bin	0	0
bin	0.033333333333333	0
bin	0.066666666666667	0
bin	0.1	0
bin	0.13333333333333	0
bin	0.16666666666667	0
bin	0.2	0
bin	0.23333333333333	0
bin	0.26666666666667	0
bin	0.3	0
bin	0.33333333333333	0
bin	0.36666666666667	0
bin	0.4	0
bin	0.43333333333333	0
bin	0.46666666666667	0
bin	0.5	0
scalar BasicTopology.peer[3].bitTorrentApp.swarmManager 	SwarmManager_EnteredSwarm:last 	-nan
attr title  "Enter Swarm Instant, last"
scalar BasicTopology.peer[3].bitTorrentApp.bitTorrentClient.contentManager_26 	ContentManager_75_percentDownloadMarkTime:last 	-nan
attr title  "75% Download Time Ordinate, last"
attr unit  s
scalar BasicTopology.peer[3].bitTorrentApp.bitTorrentClient.contentManager_26 	ContentManager_50_percentDownloadMarkTime:last 	-nan
attr title  "50% Download Time Ordinate, last"
attr unit  s
scalar BasicTopology.peer[3].bitTorrentApp.bitTorrentClient.contentManager_26 	ContentManager_25_percentDownloadMarkTime:last 	-nan
attr title  "25% Download Time Ordinate, last"
attr unit  s
statistic BasicTopology.peer[3].bitTorrentApp.bitTorrentClient 	"Piece processing time histogram"
field count 2936
field mean 0.0073639305177112
field stddev 0.0099766190078884
field sum 21.6205
field sqrsum 0.451341
field min 0
field max 0.102482
bin	-INF	0
bin	0	936
bin	0.000909091	352
bin	0.001818182	155
bin	0.002727273	108
bin	0.003636364	126
bin	0.004545455	111
bin	0.005454546	58
bin	0.006363637	55
bin	0.007272728	27
bin	0.008181819	55
bin	0.00909091	55
bin	0.010000001	85
bin	0.010909092	81
bin	0.011818183	66
bin	0.012727274	70
bin	0.013636365	71
bin	0.014545456	54
bin	0.015454547	41
bin	0.016363638	49
bin	0.017272729	44
bin	0.01818182	40
bin	0.019090911	33
bin	0.020000002	31
bin	0.020909093	22
bin	0.021818184	27
bin	0.022727275	16
bin	0.023636366	16
bin	0.024545457	14
bin	0.025454548	15
bin	0.026363639	9
bin	0.02727273	11
bin	0.028181821	11
bin	0.029090912	5
bin	0.030000003	9
bin	0.030909094	9
bin	0.031818185	3
bin	0.032727276	5
bin	0.033636367	4
bin	0.034545458	4
bin	0.035454549	4
bin	0.03636364	1
bin	0.037272731	2
bin	0.038181822	4
bin	0.039090913	3
bin	0.040000004	2
bin	0.040909095	3
bin	0.041818186	3
bin	0.042727277	3
bin	0.043636368	0
bin	0.044545459	0
bin	0.04545455	2
bin	0.046363641	1
bin	0.047272732	0
bin	0.048181823	1
bin	0.049090914	2
bin	0.05	22
scalar BasicTopology.peer[4].networkLayer.arp 	failedResolution:count 	0
attr title  "ARP failed resolutions, count"
scalar BasicTopology.peer[4].networkLayer.arp 	initiatedResolution:count 	5
attr title  "ARP initiated resolutions, count"
scalar BasicTopology.peer[4].networkLayer.arp 	sentReplies:count 	0
attr title  "ARP replies sent, count"
scalar BasicTopology.peer[4].networkLayer.arp 	sentReq:count 	5
attr title  "ARP request sent, count"
scalar BasicTopology.peer[4].wlan[0].mgmt 	dropPkByQueue:count 	640
attr interpolationmode  none
attr source  dropPkByQueue
attr title  "packets dropped by queue, count"
scalar BasicTopology.peer[4].wlan[0].mgmt 	dropPkByQueue:sum(packetBytes) 	164926
attr interpolationmode  none
attr source  dropPkByQueue
attr title  "packets dropped by queue, sum(packetBytes)"
scalar BasicTopology.peer[4].wlan[0].mgmt 	dataQueueLen:max 	10
attr interpolationmode  sample-hold
attr title  "data queue length, max"
scalar BasicTopology.peer[4].wlan[0].mgmt 	dataQueueLen:timeavg 	0.23750418277525
attr interpolationmode  sample-hold
attr title  "data queue length, timeavg"
scalar BasicTopology.peer[4].wlan[0].mac 	"number of received packets" 	40975
scalar BasicTopology.peer[4].wlan[0].mac 	"number of collisions" 	85559
scalar BasicTopology.peer[4].wlan[0].mac 	"number of internal collisions" 	0
scalar BasicTopology.peer[4].wlan[0].mac 	"number of retry for AC 0" 	30147
scalar BasicTopology.peer[4].wlan[0].mac 	"sent and receive bites" 	112458576
scalar BasicTopology.peer[4].wlan[0].mac 	"sent packet within AC 0" 	41024
scalar BasicTopology.peer[4].wlan[0].mac 	"sent in TXOP " 	0
scalar BasicTopology.peer[4].wlan[0].mac 	"sentWithoutRetry AC 0" 	26618
scalar BasicTopology.peer[4].wlan[0].mac 	"numGivenUp AC 0" 	339
scalar BasicTopology.peer[4].wlan[0].mac 	"numDropped AC 0" 	0
scalar BasicTopology.peer[4].wlan[0].radio 	lossRate:min 	0
attr interpolationmode  backward-sample-hold
attr title  "packet loss rate, min"
scalar BasicTopology.peer[4].wlan[0].radio 	lossRate:max 	0.68
attr interpolationmode  backward-sample-hold
attr title  "packet loss rate, max"
scalar BasicTopology.peer[4].wlan[0].radio 	lossRate:timeavg 	0.061052899481558
attr interpolationmode  backward-sample-hold
attr title  "packet loss rate, timeavg"
scalar BasicTopology.peer[4].wlan[0].radio 	radioState:count 	3500114
attr interpolationmode  sample-hold
attr title  "radio state (enum), count"
statistic BasicTopology.peer[4].wlan[0].radio 	channelNo:histogram
field count 0
field mean 0
field stddev -nan
field sum 0
field sqrsum 0
field min 0
field max 0
attr interpolationmode  sample-hold
attr title  "channel no, histogram"
bin	-INF	0
bin	-0.5	0
bin	-0.46666666666667	0
bin	-0.43333333333333	0
bin	-0.4	0
bin	-0.36666666666667	0
bin	-0.33333333333333	0
bin	-0.3	0
bin	-0.26666666666667	0
bin	-0.23333333333333	0
bin	-0.2	0
bin	-0.16666666666667	0
bin	-0.13333333333333	0
bin	-0.1	0
bin	-0.066666666666667	0
bin	-0.033333333333333	0
bin	0	0
bin	0.033333333333333	0
bin	0.066666666666667	0
bin	0.1	0
bin	0.13333333333333	0
bin	0.16666666666667	0
bin	0.2	0
bin	0.23333333333333	0
bin	0.26666666666667	0
bin	0.3	0
bin	0.33333333333333	0
bin	0.36666666666667	0
bin	0.4	0
bin	0.43333333333333	0
bin	0.46666666666667	0
bin	0.5	0
scalar BasicTopology.peer[4].wlan[0].radio 	bitrate:min 	-nan
attr interpolationmode  sample-hold
attr title  "tx bitrate, min"
attr unit  bps
scalar BasicTopology.peer[4].wlan[0].radio 	bitrate:max 	-nan
attr interpolationmode  sample-hold
attr title  "tx bitrate, max"
attr unit  bps
scalar BasicTopology.peer[4].wlan[0].radio 	bitrate:timeavg 	-nan
attr interpolationmode  sample-hold
attr title  "tx bitrate, timeavg"
attr unit  bps
statistic BasicTopology.peer[4].bitTorrentApp.swarmManager 	ContentManager_PieceDownloadTime:histogram
field count 0
field mean 0
field stddev -nan
field sum 0
field sqrsum 0
field min 0
field max 0
attr title  "Swarm Piece Download Time, histogram"
bin	-INF	0
bin	-0.5	0
bin	-0.46666666666667	0
bin	-0.43333333333333	0
bin	-0.4	0
bin	-0.36666666666667	0
bin	-0.33333333333333	0
bin	-0.3	0
bin	-0.26666666666667	0
bin	-0.23333333333333	0
bin	-0.2	0
bin	-0.16666666666667	0
bin	-0.13333333333333	0
bin	-0.1	0
bin	-0.066666666666667	0
bin	-0.033333333333333	0
bin	0	0
bin	0.033333333333333	0
bin	0.066666666666667	0
bin	0.1	0
bin	0.13333333333333	0
bin	0.16666666666667	0
bin	0.2	0
bin	0.23333333333333	0
bin	0.26666666666667	0
bin	0.3	0
bin	0.33333333333333	0
bin	0.36666666666667	0
bin	0.4	0
bin	0.43333333333333	0
bin	0.46666666666667	0
bin	0.5	0
statistic BasicTopology.peer[4].bitTorrentApp.swarmManager 	ContentManager_100_percentDownloadMarkTime:histogram
field count 0
field mean 0
field stddev -nan
field sum 0
field sqrsum 0
field min 0
field max 0
attr title  "100% Download Time Ordinate, histogram"
attr unit  s
bin	-INF	0
bin	-0.5	0
bin	-0.46666666666667	0
bin	-0.43333333333333	0
bin	-0.4	0
bin	-0.36666666666667	0
bin	-0.33333333333333	0
bin	-0.3	0
bin	-0.26666666666667	0
bin	-0.23333333333333	0
bin	-0.2	0
bin	-0.16666666666667	0
bin	-0.13333333333333	0
bin	-0.1	0
bin	-0.066666666666667	0
bin	-0.033333333333333	0
bin	0	0
bin	0.033333333333333	0
bin	0.066666666666667	0
bin	0.1	0
bin	0.13333333333333	0
bin	0.16666666666667	0
bin	0.2	0
bin	0.23333333333333	0
bin	0.26666666666667	0
bin	0.3	0
bin	0.33333333333333	0
bin	0.36666666666667	0
bin	0.4	0
bin	0.43333333333333	0
bin	0.46666666666667	0
bin	0.5	0
statistic BasicTopology.peer[4].bitTorrentApp.swarmManager 	ContentManager_75_percentDownloadMarkTime:histogram
field count 0
field mean 0
field stddev -nan
field sum 0
field sqrsum 0
field min 0
field max 0
attr title  "75% Download Time Ordinate, histogram"
attr unit  s
bin	-INF	0
bin	-0.5	0
bin	-0.46666666666667	0
bin	-0.43333333333333	0
bin	-0.4	0
bin	-0.36666666666667	0
bin	-0.33333333333333	0
bin	-0.3	0
bin	-0.26666666666667	0
bin	-0.23333333333333	0
bin	-0.2	0
bin	-0.16666666666667	0
bin	-0.13333333333333	0
bin	-0.1	0
bin	-0.066666666666667	0
bin	-0.033333333333333	0
bin	0	0
bin	0.033333333333333	0
bin	0.066666666666667	0
bin	0.1	0
bin	0.13333333333333	0
bin	0.16666666666667	0
bin	0.2	0
bin	0.23333333333333	0
bin	0.26666666666667	0
bin	0.3	0
bin	0.33333333333333	0
bin	0.36666666666667	0
bin	0.4	0
bin	0.43333333333333	0
bin	0.46666666666667	0
bin	0.5	0
statistic BasicTopology.peer[4].bitTorrentApp.swarmManager 	ContentManager_50_percentDownloadMarkTime:histogram
field count 0
field mean 0
field stddev -nan
field sum 0
field sqrsum 0
field min 0
field max 0
attr title  "50% Download Time Ordinate, histogram"
attr unit  s
bin	-INF	0
bin	-0.5	0
bin	-0.46666666666667	0
bin	-0.43333333333333	0
bin	-0.4	0
bin	-0.36666666666667	0
bin	-0.33333333333333	0
bin	-0.3	0
bin	-0.26666666666667	0
bin	-0.23333333333333	0
bin	-0.2	0
bin	-0.16666666666667	0
bin	-0.13333333333333	0
bin	-0.1	0
bin	-0.066666666666667	0
bin	-0.033333333333333	0
bin	0	0
bin	0.033333333333333	0
bin	0.066666666666667	0
bin	0.1	0
bin	0.13333333333333	0
bin	0.16666666666667	0
bin	0.2	0
bin	0.23333333333333	0
bin	0.26666666666667	0
bin	0.3	0
bin	0.33333333333333	0
bin	0.36666666666667	0
bin	0.4	0
bin	0.43333333333333	0
bin	0.46666666666667	0
bin	0.5	0
statistic BasicTopology.peer[4].bitTorrentApp.swarmManager 	ContentManager_25_percentDownloadMarkTime:histogram
field count 0
field mean 0
field stddev -nan
field sum 0
field sqrsum 0
field min 0
field max 0
attr title  "25% Download Time Ordinate, histogram"
attr unit  s
bin	-INF	0
bin	-0.5	0
bin	-0.46666666666667	0
bin	-0.43333333333333	0
bin	-0.4	0
bin	-0.36666666666667	0
bin	-0.33333333333333	0
bin	-0.3	0
bin	-0.26666666666667	0
bin	-0.23333333333333	0
bin	-0.2	0
bin	-0.16666666666667	0
bin	-0.13333333333333	0
bin	-0.1	0
bin	-0.066666666666667	0
bin	-0.033333333333333	0
bin	0	0
bin	0.033333333333333	0
bin	0.066666666666667	0
bin	0.1	0
bin	0.13333333333333	0
bin	0.16666666666667	0
bin	0.2	0
bin	0.23333333333333	0
bin	0.26666666666667	0
bin	0.3	0
bin	0.33333333333333	0
bin	0.36666666666667	0
bin	0.4	0
bin	0.43333333333333	0
bin	0.46666666666667	0
bin	0.5	0
scalar BasicTopology.peer[4].bitTorrentApp.swarmManager 	SwarmManager_EnteredSwarm:last 	-nan
attr title  "Enter Swarm Instant, last"
scalar BasicTopology.peer[4].bitTorrentApp.bitTorrentClient.contentManager_26 	ContentManager_75_percentDownloadMarkTime:last 	-nan
attr title  "75% Download Time Ordinate, last"
attr unit  s
scalar BasicTopology.peer[4].bitTorrentApp.bitTorrentClient.contentManager_26 	ContentManager_50_percentDownloadMarkTime:last 	-nan
attr title  "50% Download Time Ordinate, last"
attr unit  s
scalar BasicTopology.peer[4].bitTorrentApp.bitTorrentClient.contentManager_26 	ContentManager_25_percentDownloadMarkTime:last 	-nan
attr title  "25% Download Time Ordinate, last"
attr unit  s
statistic BasicTopology.peer[4].bitTorrentApp.bitTorrentClient 	"Piece processing time histogram"
field count 2936
field mean 0.0073639305177112
field stddev 0.0099766190078884
field sum 21.6205
field sqrsum 0.451341
field min 0
field max 0.102482
bin	-INF	0
bin	0	936
bin	0.000909091	352
bin	0.001818182	155
bin	0.002727273	108
bin	0.003636364	126
bin	0.004545455	111
bin	0.005454546	58
bin	0.006363637	55
bin	0.007272728	27
bin	0.008181819	55
bin	0.00909091	55
bin	0.010000001	85
bin	0.010909092	81
bin	0.011818183	66
bin	0.012727274	70
bin	0.013636365	71
bin	0.014545456	54
bin	0.015454547	41
bin	0.016363638	49
bin	0.017272729	44
bin	0.01818182	40
bin	0.019090911	33
bin	0.020000002	31
bin	0.020909093	22
bin	0.021818184	27
bin	0.022727275	16
bin	0.023636366	16
bin	0.024545457	14
bin	0.025454548	15
bin	0.026363639	9
bin	0.02727273	11
bin	0.028181821	11
bin	0.029090912	5
bin	0.030000003	9
bin	0.030909094	9
bin	0.031818185	3
bin	0.032727276	5
bin	0.033636367	4
bin	0.034545458	4
bin	0.035454549	4
bin	0.03636364	1
bin	0.037272731	2
bin	0.038181822	4
bin	0.039090913	3
bin	0.040000004	2
bin	0.040909095	3
bin	0.041818186	3
bin	0.042727277	3
bin	0.043636368	0
bin	0.044545459	0
bin	0.04545455	2
bin	0.046363641	1
bin	0.047272732	0
bin	0.048181823	1
bin	0.049090914	2
bin	0.05	22
scalar BasicTopology.peer[5].networkLayer.arp 	failedResolution:count 	0
attr title  "ARP failed resolutions, count"
scalar BasicTopology.peer[5].networkLayer.arp 	initiatedResolution:count 	11
attr title  "ARP initiated resolutions, count"
scalar BasicTopology.peer[5].networkLayer.arp 	sentReplies:count 	0
attr title  "ARP replies sent, count"
scalar BasicTopology.peer[5].networkLayer.arp 	sentReq:count 	11
attr title  "ARP request sent, count"
scalar BasicTopology.peer[5].wlan[0].mgmt 	dropPkByQueue:count 	967
attr interpolationmode  none
attr source  dropPkByQueue
attr title  "packets dropped by queue, count"
scalar BasicTopology.peer[5].wlan[0].mgmt 	dropPkByQueue:sum(packetBytes) 	248648
attr interpolationmode  none
attr source  dropPkByQueue
attr title  "packets dropped by queue, sum(packetBytes)"
scalar BasicTopology.peer[5].wlan[0].mgmt 	dataQueueLen:max 	10
attr interpolationmode  sample-hold
attr title  "data queue length, max"
scalar BasicTopology.peer[5].wlan[0].mgmt 	dataQueueLen:timeavg 	0.28482451346185
attr interpolationmode  sample-hold
attr title  "data queue length, timeavg"
scalar BasicTopology.peer[5].wlan[0].mac 	"number of received packets" 	69139
scalar BasicTopology.peer[5].wlan[0].mac 	"number of collisions" 	84279
scalar BasicTopology.peer[5].wlan[0].mac 	"number of internal collisions" 	0
scalar BasicTopology.peer[5].wlan[0].mac 	"number of retry for AC 0" 	42546
scalar BasicTopology.peer[5].wlan[0].mac 	"sent and receive bites" 	165628088
scalar BasicTopology.peer[5].wlan[0].mac 	"sent packet within AC 0" 	68327
scalar BasicTopology.peer[5].wlan[0].mac 	"sent in TXOP " 	0
scalar BasicTopology.peer[5].wlan[0].mac 	"sentWithoutRetry AC 0" 	46411
scalar BasicTopology.peer[5].wlan[0].mac 	"numGivenUp AC 0" 	354
scalar BasicTopology.peer[5].wlan[0].mac 	"numDropped AC 0" 	0
scalar BasicTopology.peer[5].wlan[0].radio 	lossRate:min 	0
attr interpolationmode  backward-sample-hold
attr title  "packet loss rate, min"
scalar BasicTopology.peer[5].wlan[0].radio 	lossRate:max 	0.5
attr interpolationmode  backward-sample-hold
attr title  "packet loss rate, max"
scalar BasicTopology.peer[5].wlan[0].radio 	lossRate:timeavg 	0.061430890933486
attr interpolationmode  backward-sample-hold
attr title  "packet loss rate, timeavg"
scalar BasicTopology.peer[5].wlan[0].radio 	radioState:count 	3611958
attr interpolationmode  sample-hold
attr title  "radio state (enum), count"
statistic BasicTopology.peer[5].wlan[0].radio 	channelNo:histogram
field count 0
field mean 0
field stddev -nan
field sum 0
field sqrsum 0
field min 0
field max 0
attr interpolationmode  sample-hold
attr title  "channel no, histogram"
bin	-INF	0
bin	-0.5	0
bin	-0.46666666666667	0
bin	-0.43333333333333	0
bin	-0.4	0
bin	-0.36666666666667	0
bin	-0.33333333333333	0
bin	-0.3	0
bin	-0.26666666666667	0
bin	-0.23333333333333	0
bin	-0.2	0
bin	-0.16666666666667	0
bin	-0.13333333333333	0
bin	-0.1	0
bin	-0.066666666666667	0
bin	-0.033333333333333	0
bin	0	0
bin	0.033333333333333	0
bin	0.066666666666667	0
bin	0.1	0
bin	0.13333333333333	0
bin	0.16666666666667	0
bin	0.2	0
bin	0.23333333333333	0
bin	0.26666666666667	0
bin	0.3	0
bin	0.33333333333333	0
bin	0.36666666666667	0
bin	0.4	0
bin	0.43333333333333	0
bin	0.46666666666667	0
bin	0.5	0
scalar BasicTopology.peer[5].wlan[0].radio 	bitrate:min 	-nan
attr interpolationmode  sample-hold
attr title  "tx bitrate, min"
attr unit  bps
scalar BasicTopology.peer[5].wlan[0].radio 	bitrate:max 	-nan
attr interpolationmode  sample-hold
attr title  "tx bitrate, max"
attr unit  bps
scalar BasicTopology.peer[5].wlan[0].radio 	bitrate:timeavg 	-nan
attr interpolationmode  sample-hold
attr title  "tx bitrate, timeavg"
attr unit  bps
statistic BasicTopology.peer[5].bitTorrentApp.swarmManager 	ContentManager_PieceDownloadTime:histogram
field count 0
field mean 0
field stddev -nan
field sum 0
field sqrsum 0
field min 0
field max 0
attr title  "Swarm Piece Download Time, histogram"
bin	-INF	0
bin	-0.5	0
bin	-0.46666666666667	0
bin	-0.43333333333333	0
bin	-0.4	0
bin	-0.36666666666667	0
bin	-0.33333333333333	0
bin	-0.3	0
bin	-0.26666666666667	0
bin	-0.23333333333333	0
bin	-0.2	0
bin	-0.16666666666667	0
bin	-0.13333333333333	0
bin	-0.1	0
bin	-0.066666666666667	0
bin	-0.033333333333333	0
bin	0	0
bin	0.033333333333333	0
bin	0.066666666666667	0
bin	0.1	0
bin	0.13333333333333	0
bin	0.16666666666667	0
bin	0.2	0
bin	0.23333333333333	0
bin	0.26666666666667	0
bin	0.3	0
bin	0.33333333333333	0
bin	0.36666666666667	0
bin	0.4	0
bin	0.43333333333333	0
bin	0.46666666666667	0
bin	0.5	0
statistic BasicTopology.peer[5].bitTorrentApp.swarmManager 	ContentManager_100_percentDownloadMarkTime:histogram
field count 0
field mean 0
field stddev -nan
field sum 0
field sqrsum 0
field min 0
field max 0
attr title  "100% Download Time Ordinate, histogram"
attr unit  s
bin	-INF	0
bin	-0.5	0
bin	-0.46666666666667	0
bin	-0.43333333333333	0
bin	-0.4	0
bin	-0.36666666666667	0
bin	-0.33333333333333	0
bin	-0.3	0
bin	-0.26666666666667	0
bin	-0.23333333333333	0
bin	-0.2	0
bin	-0.16666666666667	0
bin	-0.13333333333333	0
bin	-0.1	0
bin	-0.066666666666667	0
bin	-0.033333333333333	0
bin	0	0
bin	0.033333333333333	0
bin	0.066666666666667	0
bin	0.1	0
bin	0.13333333333333	0
bin	0.16666666666667	0
bin	0.2	0
bin	0.23333333333333	0
bin	0.26666666666667	0
bin	0.3	0
bin	0.33333333333333	0
bin	0.36666666666667	0
bin	0.4	0
bin	0.43333333333333	0
bin	0.46666666666667	0
bin	0.5	0
statistic BasicTopology.peer[5].bitTorrentApp.swarmManager 	ContentManager_75_percentDownloadMarkTime:histogram
field count 0
field mean 0
field stddev -nan
field sum 0
field sqrsum 0
field min 0
field max 0
attr title  "75% Download Time Ordinate, histogram"
attr unit  s
bin	-INF	0
bin	-0.5	0
bin	-0.46666666666667	0
bin	-0.43333333333333	0
bin	-0.4	0
bin	-0.36666666666667	0
bin	-0.33333333333333	0
bin	-0.3	0
bin	-0.26666666666667	0
bin	-0.23333333333333	0
bin	-0.2	0
bin	-0.16666666666667	0
bin	-0.13333333333333	0
bin	-0.1	0
bin	-0.066666666666667	0
bin	-0.033333333333333	0
bin	0	0
bin	0.033333333333333	0
bin	0.066666666666667	0
bin	0.1	0
bin	0.13333333333333	0
bin	0.16666666666667	0
bin	0.2	0
bin	0.23333333333333	0
bin	0.26666666666667	0
bin	0.3	0
bin	0.33333333333333	0
bin	0.36666666666667	0
bin	0.4	0
bin	0.43333333333333	0
bin	0.46666666666667	0
bin	0.5	0
statistic BasicTopology.peer[5].bitTorrentApp.swarmManager 	ContentManager_50_percentDownloadMarkTime:histogram
field count 0
field mean 0
field stddev -nan
field sum 0
field sqrsum 0
field min 0
field max 0
attr title  "50% Download Time Ordinate, histogram"
attr unit  s
bin	-INF	0
bin	-0.5	0
bin	-0.46666666666667	0
bin	-0.43333333333333	0
bin	-0.4	0
bin	-0.36666666666667	0
bin	-0.33333333333333	0
bin	-0.3	0
bin	-0.26666666666667	0
bin	-0.23333333333333	0
bin	-0.2	0
bin	-0.16666666666667	0
bin	-0.13333333333333	0
bin	-0.1	0
bin	-0.066666666666667	0
bin	-0.033333333333333	0
bin	0	0
bin	0.033333333333333	0
bin	0.066666666666667	0
bin	0.1	0
bin	0.13333333333333	0
bin	0.16666666666667	0
bin	0.2	0
bin	0.23333333333333	0
bin	0.26666666666667	0
bin	0.3	0
bin	0.33333333333333	0
bin	0.36666666666667	0
bin	0.4	0
bin	0.43333333333333	0
bin	0.46666666666667	0
bin	0.5	0
statistic BasicTopology.peer[5].bitTorrentApp.swarmManager 	ContentManager_25_percentDownloadMarkTime:histogram
field count 0
field mean 0
field stddev -nan
field sum 0
field sqrsum 0
field min 0
field max 0
attr title  "25% Download Time Ordinate, histogram"
attr unit  s
bin	-INF	0
bin	-0.5	0
bin	-0.46666666666667	0
bin	-0.43333333333333	0
bin	-0.4	0
bin	-0.36666666666667	0
bin	-0.33333333333333	0
bin	-0.3	0
bin	-0.26666666666667	0
bin	-0.23333333333333	0
bin	-0.2	0
bin	-0.16666666666667	0
bin	-0.13333333333333	0
bin	-0.1	0
bin	-0.066666666666667	0
bin	-0.033333333333333	0
bin	0	0
bin	0.033333333333333	0
bin	0.066666666666667	0
bin	0.1	0
bin	0.13333333333333	0
bin	0.16666666666667	0
bin	0.2	0
bin	0.23333333333333	0
bin	0.26666666666667	0
bin	0.3	0
bin	0.33333333333333	0
bin	0.36666666666667	0
bin	0.4	0
bin	0.43333333333333	0
bin	0.46666666666667	0
bin	0.5	0
scalar BasicTopology.peer[5].bitTorrentApp.swarmManager 	SwarmManager_EnteredSwarm:last 	-nan
attr title  "Enter Swarm Instant, last"
scalar BasicTopology.peer[5].bitTorrentApp.bitTorrentClient.contentManager_26 	ContentManager_75_percentDownloadMarkTime:last 	-nan
attr title  "75% Download Time Ordinate, last"
attr unit  s
scalar BasicTopology.peer[5].bitTorrentApp.bitTorrentClient.contentManager_26 	ContentManager_50_percentDownloadMarkTime:last 	-nan
attr title  "50% Download Time Ordinate, last"
attr unit  s
scalar BasicTopology.peer[5].bitTorrentApp.bitTorrentClient.contentManager_26 	ContentManager_25_percentDownloadMarkTime:last 	-nan
attr title  "25% Download Time Ordinate, last"
attr unit  s
statistic BasicTopology.peer[5].bitTorrentApp.bitTorrentClient 	"Piece processing time histogram"
field count 2936
field mean 0.0073639305177112
field stddev 0.0099766190078884
field sum 21.6205
field sqrsum 0.451341
field min 0
field max 0.102482
bin	-INF	0
bin	0	936
bin	0.000909091	352
bin	0.001818182	155
bin	0.002727273	108
bin	0.003636364	126
bin	0.004545455	111
bin	0.005454546	58
bin	0.006363637	55
bin	0.007272728	27
bin	0.008181819	55
bin	0.00909091	55
bin	0.010000001	85
bin	0.010909092	81
bin	0.011818183	66
bin	0.012727274	70
bin	0.013636365	71
bin	0.014545456	54
bin	0.015454547	41
bin	0.016363638	49
bin	0.017272729	44
bin	0.01818182	40
bin	0.019090911	33
bin	0.020000002	31
bin	0.020909093	22
bin	0.021818184	27
bin	0.022727275	16
bin	0.023636366	16
bin	0.024545457	14
bin	0.025454548	15
bin	0.026363639	9
bin	0.02727273	11
bin	0.028181821	11
bin	0.029090912	5
bin	0.030000003	9
bin	0.030909094	9
bin	0.031818185	3
bin	0.032727276	5
bin	0.033636367	4
bin	0.034545458	4
bin	0.035454549	4
bin	0.03636364	1
bin	0.037272731	2
bin	0.038181822	4
bin	0.039090913	3
bin	0.040000004	2
bin	0.040909095	3
bin	0.041818186	3
bin	0.042727277	3
bin	0.043636368	0
bin	0.044545459	0
bin	0.04545455	2
bin	0.046363641	1
bin	0.047272732	0
bin	0.048181823	1
bin	0.049090914	2
bin	0.05	22
scalar BasicTopology.peer[6].networkLayer.arp 	failedResolution:count 	0
attr title  "ARP failed resolutions, count"
scalar BasicTopology.peer[6].networkLayer.arp 	initiatedResolution:count 	8
attr title  "ARP initiated resolutions, count"
scalar BasicTopology.peer[6].networkLayer.arp 	sentReplies:count 	0
attr title  "ARP replies sent, count"
scalar BasicTopology.peer[6].networkLayer.arp 	sentReq:count 	8
attr title  "ARP request sent, count"
scalar BasicTopology.peer[6].wlan[0].mgmt 	dropPkByQueue:count 	747
attr interpolationmode  none
attr source  dropPkByQueue
attr title  "packets dropped by queue, count"
scalar BasicTopology.peer[6].wlan[0].mgmt 	dropPkByQueue:sum(packetBytes) 	164141
attr interpolationmode  none
attr source  dropPkByQueue
attr title  "packets dropped by queue, sum(packetBytes)"
scalar BasicTopology.peer[6].wlan[0].mgmt 	dataQueueLen:max 	10
attr interpolationmode  sample-hold
attr title  "data queue length, max"
scalar BasicTopology.peer[6].wlan[0].mgmt 	dataQueueLen:timeavg 	0.22177067042962
attr interpolationmode  sample-hold
attr title  "data queue length, timeavg"
scalar BasicTopology.peer[6].wlan[0].mac 	"number of received packets" 	65523
scalar BasicTopology.peer[6].wlan[0].mac 	"number of collisions" 	61583
scalar BasicTopology.peer[6].wlan[0].mac 	"number of internal collisions" 	0
scalar BasicTopology.peer[6].wlan[0].mac 	"number of retry for AC 0" 	35641
scalar BasicTopology.peer[6].wlan[0].mac 	"sent and receive bites" 	161190880
scalar BasicTopology.peer[6].wlan[0].mac 	"sent packet within AC 0" 	64846
scalar BasicTopology.peer[6].wlan[0].mac 	"sent in TXOP " 	0
scalar BasicTopology.peer[6].wlan[0].mac 	"sentWithoutRetry AC 0" 	46415
scalar BasicTopology.peer[6].wlan[0].mac 	"numGivenUp AC 0" 	302
scalar BasicTopology.peer[6].wlan[0].mac 	"numDropped AC 0" 	0
scalar BasicTopology.peer[6].wlan[0].radio 	lossRate:min 	0
attr interpolationmode  backward-sample-hold
attr title  "packet loss rate, min"
scalar BasicTopology.peer[6].wlan[0].radio 	lossRate:max 	0.6
attr interpolationmode  backward-sample-hold
attr title  "packet loss rate, max"
scalar BasicTopology.peer[6].wlan[0].radio 	lossRate:timeavg 	0.049146085876835
attr interpolationmode  backward-sample-hold
attr title  "packet loss rate, timeavg"
scalar BasicTopology.peer[6].wlan[0].radio 	radioState:count 	3120898
attr interpolationmode  sample-hold
attr title  "radio state (enum), count"
statistic BasicTopology.peer[6].wlan[0].radio 	channelNo:histogram
field count 0
field mean 0
field stddev -nan
field sum 0
field sqrsum 0
field min 0
field max 0
attr interpolationmode  sample-hold
attr title  "channel no, histogram"
bin	-INF	0
bin	-0.5	0
bin	-0.46666666666667	0
bin	-0.43333333333333	0
bin	-0.4	0
bin	-0.36666666666667	0
bin	-0.33333333333333	0
bin	-0.3	0
bin	-0.26666666666667	0
bin	-0.23333333333333	0
bin	-0.2	0
bin	-0.16666666666667	0
bin	-0.13333333333333	0
bin	-0.1	0
bin	-0.066666666666667	0
bin	-0.033333333333333	0
bin	0	0
bin	0.033333333333333	0
bin	0.066666666666667	0
bin	0.1	0
bin	0.13333333333333	0
bin	0.16666666666667	0
bin	0.2	0
bin	0.23333333333333	0
bin	0.26666666666667	0
bin	0.3	0
bin	0.33333333333333	0
bin	0.36666666666667	0
bin	0.4	0
bin	0.43333333333333	0
bin	0.46666666666667	0
bin	0.5	0
scalar BasicTopology.peer[6].wlan[0].radio 	bitrate:min 	-nan
attr interpolationmode  sample-hold
attr title  "tx bitrate, min"
attr unit  bps
scalar BasicTopology.peer[6].wlan[0].radio 	bitrate:max 	-nan
attr interpolationmode  sample-hold
attr title  "tx bitrate, max"
attr unit  bps
scalar BasicTopology.peer[6].wlan[0].radio 	bitrate:timeavg 	-nan
attr interpolationmode  sample-hold
attr title  "tx bitrate, timeavg"
attr unit  bps
statistic BasicTopology.peer[6].bitTorrentApp.swarmManager 	ContentManager_PieceDownloadTime:histogram
field count 0
field mean 0
field stddev -nan
field sum 0
field sqrsum 0
field min 0
field max 0
attr title  "Swarm Piece Download Time, histogram"
bin	-INF	0
bin	-0.5	0
bin	-0.46666666666667	0
bin	-0.43333333333333	0
bin	-0.4	0
bin	-0.36666666666667	0
bin	-0.33333333333333	0
bin	-0.3	0
bin	-0.26666666666667	0
bin	-0.23333333333333	0
bin	-0.2	0
bin	-0.16666666666667	0
bin	-0.13333333333333	0
bin	-0.1	0
bin	-0.066666666666667	0
bin	-0.033333333333333	0
bin	0	0
bin	0.033333333333333	0
bin	0.066666666666667	0
bin	0.1	0
bin	0.13333333333333	0
bin	0.16666666666667	0
bin	0.2	0
bin	0.23333333333333	0
bin	0.26666666666667	0
bin	0.3	0
bin	0.33333333333333	0
bin	0.36666666666667	0
bin	0.4	0
bin	0.43333333333333	0
bin	0.46666666666667	0
bin	0.5	0
statistic BasicTopology.peer[6].bitTorrentApp.swarmManager 	ContentManager_100_percentDownloadMarkTime:histogram
field count 0
field mean 0
field stddev -nan
field sum 0
field sqrsum 0
field min 0
field max 0
attr title  "100% Download Time Ordinate, histogram"
attr unit  s
bin	-INF	0
bin	-0.5	0
bin	-0.46666666666667	0
bin	-0.43333333333333	0
bin	-0.4	0
bin	-0.36666666666667	0
bin	-0.33333333333333	0
bin	-0.3	0
bin	-0.26666666666667	0
bin	-0.23333333333333	0
bin	-0.2	0
bin	-0.16666666666667	0
bin	-0.13333333333333	0
bin	-0.1	0
bin	-0.066666666666667	0
bin	-0.033333333333333	0
bin	0	0
bin	0.033333333333333	0
bin	0.066666666666667	0
bin	0.1	0
bin	0.13333333333333	0
bin	0.16666666666667	0
bin	0.2	0
bin	0.23333333333333	0
bin	0.26666666666667	0
bin	0.3	0
bin	0.33333333333333	0
bin	0.36666666666667	0
bin	0.4	0
bin	0.43333333333333	0
bin	0.46666666666667	0
bin	0.5	0
statistic BasicTopology.peer[6].bitTorrentApp.swarmManager 	ContentManager_75_percentDownloadMarkTime:histogram
field count 0
field mean 0
field stddev -nan
field sum 0
field sqrsum 0
field min 0
field max 0
attr title  "75% Download Time Ordinate, histogram"
attr unit  s
bin	-INF	0
bin	-0.5	0
bin	-0.46666666666667	0
bin	-0.43333333333333	0
bin	-0.4	0
bin	-0.36666666666667	0
bin	-0.33333333333333	0
bin	-0.3	0
bin	-0.26666666666667	0
bin	-0.23333333333333	0
bin	-0.2	0
bin	-0.16666666666667	0
bin	-0.13333333333333	0
bin	-0.1	0
bin	-0.066666666666667	0
bin	-0.033333333333333	0
bin	0	0
bin	0.033333333333333	0
bin	0.066666666666667	0
bin	0.1	0
bin	0.13333333333333	0
bin	0.16666666666667	0
bin	0.2	0
bin	0.23333333333333	0
bin	0.26666666666667	0
bin	0.3	0
bin	0.33333333333333	0
bin	0.36666666666667	0
bin	0.4	0
bin	0.43333333333333	0
bin	0.46666666666667	0
bin	0.5	0
statistic BasicTopology.peer[6].bitTorrentApp.swarmManager 	ContentManager_50_percentDownloadMarkTime:histogram
field count 0
field mean 0
field stddev -nan
field sum 0
field sqrsum 0
field min 0
field max 0
attr title  "50% Download Time Ordinate, histogram"
attr unit  s
bin	-INF	0
bin	-0.5	0
bin	-0.46666666666667	0
bin	-0.43333333333333	0
bin	-0.4	0
bin	-0.36666666666667	0
bin	-0.33333333333333	0
bin	-0.3	0
bin	-0.26666666666667	0
bin	-0.23333333333333	0
bin	-0.2	0
bin	-0.16666666666667	0
bin	-0.13333333333333	0
bin	-0.1	0
bin	-0.066666666666667	0
bin	-0.033333333333333	0
bin	0	0
bin	0.033333333333333	0
bin	0.066666666666667	0
bin	0.1	0
bin	0.13333333333333	0
bin	0.16666666666667	0
bin	0.2	0
bin	0.23333333333333	0
bin	0.26666666666667	0
bin	0.3	0
bin	0.33333333333333	0
bin	0.36666666666667	0
bin	0.4	0
bin	0.43333333333333	0
bin	0.46666666666667	0
bin	0.5	0
statistic BasicTopology.peer[6].bitTorrentApp.swarmManager 	ContentManager_25_percentDownloadMarkTime:histogram
field count 0
field mean 0
field stddev -nan
field sum 0
field sqrsum 0
field min 0
field max 0
attr title  "25% Download Time Ordinate, histogram"
attr unit  s
bin	-INF	0
bin	-0.5	0
bin	-0.46666666666667	0
bin	-0.43333333333333	0
bin	-0.4	0
bin	-0.36666666666667	0
bin	-0.33333333333333	0
bin	-0.3	0
bin	-0.26666666666667	0
bin	-0.23333333333333	0
bin	-0.2	0
bin	-0.16666666666667	0
bin	-0.13333333333333	0
bin	-0.1	0
bin	-0.066666666666667	0
bin	-0.033333333333333	0
bin	0	0
bin	0.033333333333333	0
bin	0.066666666666667	0
bin	0.1	0
bin	0.13333333333333	0
bin	0.16666666666667	0
bin	0.2	0
bin	0.23333333333333	0
bin	0.26666666666667	0
bin	0.3	0
bin	0.33333333333333	0
bin	0.36666666666667	0
bin	0.4	0
bin	0.43333333333333	0
bin	0.46666666666667	0
bin	0.5	0
scalar BasicTopology.peer[6].bitTorrentApp.swarmManager 	SwarmManager_EnteredSwarm:last 	-nan
attr title  "Enter Swarm Instant, last"
scalar BasicTopology.peer[6].bitTorrentApp.bitTorrentClient.contentManager_26 	ContentManager_75_percentDownloadMarkTime:last 	-nan
attr title  "75% Download Time Ordinate, last"
attr unit  s
scalar BasicTopology.peer[6].bitTorrentApp.bitTorrentClient.contentManager_26 	ContentManager_50_percentDownloadMarkTime:last 	-nan
attr title  "50% Download Time Ordinate, last"
attr unit  s
scalar BasicTopology.peer[6].bitTorrentApp.bitTorrentClient.contentManager_26 	ContentManager_25_percentDownloadMarkTime:last 	-nan
attr title  "25% Download Time Ordinate, last"
attr unit  s
statistic BasicTopology.peer[6].bitTorrentApp.bitTorrentClient 	"Piece processing time histogram"
field count 2936
field mean 0.0073639305177112
field stddev 0.0099766190078884
field sum 21.6205
field sqrsum 0.451341
field min 0
field max 0.102482
bin	-INF	0
bin	0	936
bin	0.000909091	352
bin	0.001818182	155
bin	0.002727273	108
bin	0.003636364	126
bin	0.004545455	111
bin	0.005454546	58
bin	0.006363637	55
bin	0.007272728	27
bin	0.008181819	55
bin	0.00909091	55
bin	0.010000001	85
bin	0.010909092	81
bin	0.011818183	66
bin	0.012727274	70
bin	0.013636365	71
bin	0.014545456	54
bin	0.015454547	41
bin	0.016363638	49
bin	0.017272729	44
bin	0.01818182	40
bin	0.019090911	33
bin	0.020000002	31
bin	0.020909093	22
bin	0.021818184	27
bin	0.022727275	16
bin	0.023636366	16
bin	0.024545457	14
bin	0.025454548	15
bin	0.026363639	9
bin	0.02727273	11
bin	0.028181821	11
bin	0.029090912	5
bin	0.030000003	9
bin	0.030909094	9
bin	0.031818185	3
bin	0.032727276	5
bin	0.033636367	4
bin	0.034545458	4
bin	0.035454549	4
bin	0.03636364	1
bin	0.037272731	2
bin	0.038181822	4
bin	0.039090913	3
bin	0.040000004	2
bin	0.040909095	3
bin	0.041818186	3
bin	0.042727277	3
bin	0.043636368	0
bin	0.044545459	0
bin	0.04545455	2
bin	0.046363641	1
bin	0.047272732	0
bin	0.048181823	1
bin	0.049090914	2
bin	0.05	22
scalar BasicTopology.peer[7].networkLayer.arp 	failedResolution:count 	0
attr title  "ARP failed resolutions, count"
scalar BasicTopology.peer[7].networkLayer.arp 	initiatedResolution:count 	4
attr title  "ARP initiated resolutions, count"
scalar BasicTopology.peer[7].networkLayer.arp 	sentReplies:count 	0
attr title  "ARP replies sent, count"
scalar BasicTopology.peer[7].networkLayer.arp 	sentReq:count 	4
attr title  "ARP request sent, count"
scalar BasicTopology.peer[7].wlan[0].mgmt 	dropPkByQueue:count 	636
attr interpolationmode  none
attr source  dropPkByQueue
attr title  "packets dropped by queue, count"
scalar BasicTopology.peer[7].wlan[0].mgmt 	dropPkByQueue:sum(packetBytes) 	145079
attr interpolationmode  none
attr source  dropPkByQueue
attr title  "packets dropped by queue, sum(packetBytes)"
scalar BasicTopology.peer[7].wlan[0].mgmt 	dataQueueLen:max 	10
attr interpolationmode  sample-hold
attr title  "data queue length, max"
scalar BasicTopology.peer[7].wlan[0].mgmt 	dataQueueLen:timeavg 	0.14744950600835
attr interpolationmode  sample-hold
attr title  "data queue length, timeavg"
scalar BasicTopology.peer[7].wlan[0].mac 	"number of received packets" 	59027
scalar BasicTopology.peer[7].wlan[0].mac 	"number of collisions" 	36488
scalar BasicTopology.peer[7].wlan[0].mac 	"number of internal collisions" 	0
scalar BasicTopology.peer[7].wlan[0].mac 	"number of retry for AC 0" 	27164
scalar BasicTopology.peer[7].wlan[0].mac 	"sent and receive bites" 	152225528
scalar BasicTopology.peer[7].wlan[0].mac 	"sent packet within AC 0" 	58868
scalar BasicTopology.peer[7].wlan[0].mac 	"sent in TXOP " 	0
scalar BasicTopology.peer[7].wlan[0].mac 	"sentWithoutRetry AC 0" 	44453
scalar BasicTopology.peer[7].wlan[0].mac 	"numGivenUp AC 0" 	187
scalar BasicTopology.peer[7].wlan[0].mac 	"numDropped AC 0" 	0
scalar BasicTopology.peer[7].wlan[0].radio 	lossRate:min 	0
attr interpolationmode  backward-sample-hold
attr title  "packet loss rate, min"
scalar BasicTopology.peer[7].wlan[0].radio 	lossRate:max 	0.44
attr interpolationmode  backward-sample-hold
attr title  "packet loss rate, max"
scalar BasicTopology.peer[7].wlan[0].radio 	lossRate:timeavg 	0.041364954329673
attr interpolationmode  backward-sample-hold
attr title  "packet loss rate, timeavg"
scalar BasicTopology.peer[7].wlan[0].radio 	radioState:count 	2419544
attr interpolationmode  sample-hold
attr title  "radio state (enum), count"
statistic BasicTopology.peer[7].wlan[0].radio 	channelNo:histogram
field count 0
field mean 0
field stddev -nan
field sum 0
field sqrsum 0
field min 0
field max 0
attr interpolationmode  sample-hold
attr title  "channel no, histogram"
bin	-INF	0
bin	-0.5	0
bin	-0.46666666666667	0
bin	-0.43333333333333	0
bin	-0.4	0
bin	-0.36666666666667	0
bin	-0.33333333333333	0
bin	-0.3	0
bin	-0.26666666666667	0
bin	-0.23333333333333	0
bin	-0.2	0
bin	-0.16666666666667	0
bin	-0.13333333333333	0
bin	-0.1	0
bin	-0.066666666666667	0
bin	-0.033333333333333	0
bin	0	0
bin	0.033333333333333	0
bin	0.066666666666667	0
bin	0.1	0
bin	0.13333333333333	0
bin	0.16666666666667	0
bin	0.2	0
bin	0.23333333333333	0
bin	0.26666666666667	0
bin	0.3	0
bin	0.33333333333333	0
bin	0.36666666666667	0
bin	0.4	0
bin	0.43333333333333	0
bin	0.46666666666667	0
bin	0.5	0
scalar BasicTopology.peer[7].wlan[0].radio 	bitrate:min 	-nan
attr interpolationmode  sample-hold
attr title  "tx bitrate, min"
attr unit  bps
scalar BasicTopology.peer[7].wlan[0].radio 	bitrate:max 	-nan
attr interpolationmode  sample-hold
attr title  "tx bitrate, max"
attr unit  bps
scalar BasicTopology.peer[7].wlan[0].radio 	bitrate:timeavg 	-nan
attr interpolationmode  sample-hold
attr title  "tx bitrate, timeavg"
attr unit  bps
statistic BasicTopology.peer[7].bitTorrentApp.swarmManager 	ContentManager_PieceDownloadTime:histogram
field count 0
field mean 0
field stddev -nan
field sum 0
field sqrsum 0
field min 0
field max 0
attr title  "Swarm Piece Download Time, histogram"
bin	-INF	0
bin	-0.5	0
bin	-0.46666666666667	0
bin	-0.43333333333333	0
bin	-0.4	0
bin	-0.36666666666667	0
bin	-0.33333333333333	0
bin	-0.3	0
bin	-0.26666666666667	0
bin	-0.23333333333333	0
bin	-0.2	0
bin	-0.16666666666667	0
bin	-0.13333333333333	0
bin	-0.1	0
bin	-0.066666666666667	0
bin	-0.033333333333333	0
bin	0	0
bin	0.033333333333333	0
bin	0.066666666666667	0
bin	0.1	0
bin	0.13333333333333	0
bin	0.16666666666667	0
bin	0.2	0
bin	0.23333333333333	0
bin	0.26666666666667	0
bin	0.3	0
bin	0.33333333333333	0
bin	0.36666666666667	0
bin	0.4	0
bin	0.43333333333333	0
bin	0.46666666666667	0
bin	0.5	0
statistic BasicTopology.peer[7].bitTorrentApp.swarmManager 	ContentManager_100_percentDownloadMarkTime:histogram
field count 0
field mean 0
field stddev -nan
field sum 0
field sqrsum 0
field min 0
field max 0
attr title  "100% Download Time Ordinate, histogram"
attr unit  s
bin	-INF	0
bin	-0.5	0
bin	-0.46666666666667	0
bin	-0.43333333333333	0
bin	-0.4	0
bin	-0.36666666666667	0
bin	-0.33333333333333	0
bin	-0.3	0
bin	-0.26666666666667	0
bin	-0.23333333333333	0
bin	-0.2	0
bin	-0.16666666666667	0
bin	-0.13333333333333	0
bin	-0.1	0
bin	-0.066666666666667	0
bin	-0.033333333333333	0
bin	0	0
bin	0.033333333333333	0
bin	0.066666666666667	0
bin	0.1	0
bin	0.13333333333333	0
bin	0.16666666666667	0
bin	0.2	0
bin	0.23333333333333	0
bin	0.26666666666667	0
bin	0.3	0
bin	0.33333333333333	0
bin	0.36666666666667	0
bin	0.4	0
bin	0.43333333333333	0
bin	0.46666666666667	0
bin	0.5	0
statistic BasicTopology.peer[7].bitTorrentApp.swarmManager 	ContentManager_75_percentDownloadMarkTime:histogram
field count 0
field mean 0
field stddev -nan
field sum 0
field sqrsum 0
field min 0
field max 0
attr title  "75% Download Time Ordinate, histogram"
attr unit  s
bin	-INF	0
bin	-0.5	0
bin	-0.46666666666667	0
bin	-0.43333333333333	0
bin	-0.4	0
bin	-0.36666666666667	0
bin	-0.33333333333333	0
bin	-0.3	0
bin	-0.26666666666667	0
bin	-0.23333333333333	0
bin	-0.2	0
bin	-0.16666666666667	0
bin	-0.13333333333333	0
bin	-0.1	0
bin	-0.066666666666667	0
bin	-0.033333333333333	0
bin	0	0
bin	0.033333333333333	0
bin	0.066666666666667	0
bin	0.1	0
bin	0.13333333333333	0
bin	0.16666666666667	0
bin	0.2	0
bin	0.23333333333333	0
bin	0.26666666666667	0
bin	0.3	0
bin	0.33333333333333	0
bin	0.36666666666667	0
bin	0.4	0
bin	0.43333333333333	0
bin	0.46666666666667	0
bin	0.5	0
statistic BasicTopology.peer[7].bitTorrentApp.swarmManager 	ContentManager_50_percentDownloadMarkTime:histogram
field count 0
field mean 0
field stddev -nan
field sum 0
field sqrsum 0
field min 0
field max 0
attr title  "50% Download Time Ordinate, histogram"
attr unit  s
bin	-INF	0
bin	-0.5	0
bin	-0.46666666666667	0
bin	-0.43333333333333	0
bin	-0.4	0
bin	-0.36666666666667	0
bin	-0.33333333333333	0
bin	-0.3	0
bin	-0.26666666666667	0
bin	-0.23333333333333	0
bin	-0.2	0
bin	-0.16666666666667	0
bin	-0.13333333333333	0
bin	-0.1	0
bin	-0.066666666666667	0
bin	-0.033333333333333	0
bin	0	0
bin	0.033333333333333	0
bin	0.066666666666667	0
bin	0.1	0
bin	0.13333333333333	0
bin	0.16666666666667	0
bin	0.2	0
bin	0.23333333333333	0
bin	0.26666666666667	0
bin	0.3	0
bin	0.33333333333333	0
bin	0.36666666666667	0
bin	0.4	0
bin	0.43333333333333	0
bin	0.46666666666667	0
bin	0.5	0
statistic BasicTopology.peer[7].bitTorrentApp.swarmManager 	ContentManager_25_percentDownloadMarkTime:histogram
field count 0
field mean 0
field stddev -nan
field sum 0
field sqrsum 0
field min 0
field max 0
attr title  "25% Download Time Ordinate, histogram"
attr unit  s
bin	-INF	0
bin	-0.5	0
bin	-0.46666666666667	0
bin	-0.43333333333333	0
bin	-0.4	0
bin	-0.36666666666667	0
bin	-0.33333333333333	0
bin	-0.3	0
bin	-0.26666666666667	0
bin	-0.23333333333333	0
bin	-0.2	0
bin	-0.16666666666667	0
bin	-0.13333333333333	0
bin	-0.1	0
bin	-0.066666666666667	0
bin	-0.033333333333333	0
bin	0	0
bin	0.033333333333333	0
bin	0.066666666666667	0
bin	0.1	0
bin	0.13333333333333	0
bin	0.16666666666667	0
bin	0.2	0
bin	0.23333333333333	0
bin	0.26666666666667	0
bin	0.3	0
bin	0.33333333333333	0
bin	0.36666666666667	0
bin	0.4	0
bin	0.43333333333333	0
bin	0.46666666666667	0
bin	0.5	0
scalar BasicTopology.peer[7].bitTorrentApp.swarmManager 	SwarmManager_EnteredSwarm:last 	-nan
attr title  "Enter Swarm Instant, last"
scalar BasicTopology.peer[7].bitTorrentApp.bitTorrentClient.contentManager_26 	ContentManager_75_percentDownloadMarkTime:last 	-nan
attr title  "75% Download Time Ordinate, last"
attr unit  s
scalar BasicTopology.peer[7].bitTorrentApp.bitTorrentClient.contentManager_26 	ContentManager_50_percentDownloadMarkTime:last 	-nan
attr title  "50% Download Time Ordinate, last"
attr unit  s
scalar BasicTopology.peer[7].bitTorrentApp.bitTorrentClient.contentManager_26 	ContentManager_25_percentDownloadMarkTime:last 	-nan
attr title  "25% Download Time Ordinate, last"
attr unit  s
statistic BasicTopology.peer[7].bitTorrentApp.bitTorrentClient 	"Piece processing time histogram"
field count 2936
field mean 0.0073639305177112
field stddev 0.0099766190078884
field sum 21.6205
field sqrsum 0.451341
field min 0
field max 0.102482
bin	-INF	0
bin	0	936
bin	0.000909091	352
bin	0.001818182	155
bin	0.002727273	108
bin	0.003636364	126
bin	0.004545455	111
bin	0.005454546	58
bin	0.006363637	55
bin	0.007272728	27
bin	0.008181819	55
bin	0.00909091	55
bin	0.010000001	85
bin	0.010909092	81
bin	0.011818183	66
bin	0.012727274	70
bin	0.013636365	71
bin	0.014545456	54
bin	0.015454547	41
bin	0.016363638	49
bin	0.017272729	44
bin	0.01818182	40
bin	0.019090911	33
bin	0.020000002	31
bin	0.020909093	22
[...]
field sum 0
field sqrsum 0
field min 0
field max 0
attr title  "Swarm Piece Download Time, histogram"
bin	-INF	0
bin	-0.5	0
bin	-0.46666666666667	0
bin	-0.43333333333333	0
bin	-0.4	0
bin	-0.36666666666667	0
bin	-0.33333333333333	0
bin	-0.3	0
bin	-0.26666666666667	0
bin	-0.23333333333333	0
bin	-0.2	0
bin	-0.16666666666667	0
bin	-0.13333333333333	0
bin	-0.1	0
bin	-0.066666666666667	0
bin	-0.033333333333333	0
bin	0	0
bin	0.033333333333333	0
bin	0.066666666666667	0
bin	0.1	0
bin	0.13333333333333	0
bin	0.16666666666667	0
bin	0.2	0
bin	0.23333333333333	0
bin	0.26666666666667	0
bin	0.3	0
bin	0.33333333333333	0
bin	0.36666666666667	0
bin	0.4	0
bin	0.43333333333333	0
bin	0.46666666666667	0
bin	0.5	0
statistic BasicTopology.peer[23].bitTorrentApp.swarmManager 	ContentManager_100_percentDownloadMarkTime:histogram
field count 0
field mean 0
field stddev -nan
field sum 0
field sqrsum 0
field min 0
field max 0
attr title  "100% Download Time Ordinate, histogram"
attr unit  s
bin	-INF	0
bin	-0.5	0
bin	-0.46666666666667	0
bin	-0.43333333333333	0
bin	-0.4	0
bin	-0.36666666666667	0
bin	-0.33333333333333	0
bin	-0.3	0
bin	-0.26666666666667	0
bin	-0.23333333333333	0
bin	-0.2	0
bin	-0.16666666666667	0
bin	-0.13333333333333	0
bin	-0.1	0
bin	-0.066666666666667	0
bin	-0.033333333333333	0
bin	0	0
bin	0.033333333333333	0
bin	0.066666666666667	0
bin	0.1	0
bin	0.13333333333333	0
bin	0.16666666666667	0
bin	0.2	0
bin	0.23333333333333	0
bin	0.26666666666667	0
bin	0.3	0
bin	0.33333333333333	0
bin	0.36666666666667	0
bin	0.4	0
bin	0.43333333333333	0
bin	0.46666666666667	0
bin	0.5	0
statistic BasicTopology.peer[23].bitTorrentApp.swarmManager 	ContentManager_75_percentDownloadMarkTime:histogram
field count 0
field mean 0
field stddev -nan
field sum 0
field sqrsum 0
field min 0
field max 0
attr title  "75% Download Time Ordinate, histogram"
attr unit  s
bin	-INF	0
bin	-0.5	0
bin	-0.46666666666667	0
bin	-0.43333333333333	0
bin	-0.4	0
bin	-0.36666666666667	0
bin	-0.33333333333333	0
bin	-0.3	0
bin	-0.26666666666667	0
bin	-0.23333333333333	0
bin	-0.2	0
bin	-0.16666666666667	0
bin	-0.13333333333333	0
bin	-0.1	0
bin	-0.066666666666667	0
bin	-0.033333333333333	0
bin	0	0
bin	0.033333333333333	0
bin	0.066666666666667	0
bin	0.1	0
bin	0.13333333333333	0
bin	0.16666666666667	0
bin	0.2	0
bin	0.23333333333333	0
bin	0.26666666666667	0
bin	0.3	0
bin	0.33333333333333	0
bin	0.36666666666667	0
bin	0.4	0
bin	0.43333333333333	0
bin	0.46666666666667	0
bin	0.5	0
statistic BasicTopology.peer[23].bitTorrentApp.swarmManager 	ContentManager_50_percentDownloadMarkTime:histogram
field count 0
field mean 0
field stddev -nan
field sum 0
field sqrsum 0
field min 0
field max 0
attr title  "50% Download Time Ordinate, histogram"
attr unit  s
bin	-INF	0
bin	-0.5	0
bin	-0.46666666666667	0
bin	-0.43333333333333	0
bin	-0.4	0
bin	-0.36666666666667	0
bin	-0.33333333333333	0
bin	-0.3	0
bin	-0.26666666666667	0
bin	-0.23333333333333	0
bin	-0.2	0
bin	-0.16666666666667	0
bin	-0.13333333333333	0
bin	-0.1	0
bin	-0.066666666666667	0
bin	-0.033333333333333	0
bin	0	0
bin	0.033333333333333	0
bin	0.066666666666667	0
bin	0.1	0
bin	0.13333333333333	0
bin	0.16666666666667	0
bin	0.2	0
bin	0.23333333333333	0
bin	0.26666666666667	0
bin	0.3	0
bin	0.33333333333333	0
bin	0.36666666666667	0
bin	0.4	0
bin	0.43333333333333	0
bin	0.46666666666667	0
bin	0.5	0
statistic BasicTopology.peer[23].bitTorrentApp.swarmManager 	ContentManager_25_percentDownloadMarkTime:histogram
field count 0
field mean 0
field stddev -nan
field sum 0
field sqrsum 0
field min 0
field max 0
attr title  "25% Download Time Ordinate, histogram"
attr unit  s
bin	-INF	0
bin	-0.5	0
bin	-0.46666666666667	0
bin	-0.43333333333333	0
bin	-0.4	0
bin	-0.36666666666667	0
bin	-0.33333333333333	0
bin	-0.3	0
bin	-0.26666666666667	0
bin	-0.23333333333333	0
bin	-0.2	0
bin	-0.16666666666667	0
bin	-0.13333333333333	0
bin	-0.1	0
bin	-0.066666666666667	0
bin	-0.033333333333333	0
bin	0	0
bin	0.033333333333333	0
bin	0.066666666666667	0
bin	0.1	0
bin	0.13333333333333	0
bin	0.16666666666667	0
bin	0.2	0
bin	0.23333333333333	0
bin	0.26666666666667	0
bin	0.3	0
bin	0.33333333333333	0
bin	0.36666666666667	0
bin	0.4	0
bin	0.43333333333333	0
bin	0.46666666666667	0
bin	0.5	0
scalar BasicTopology.peer[23].bitTorrentApp.swarmManager 	SwarmManager_EnteredSwarm:last 	-nan
attr title  "Enter Swarm Instant, last"
scalar BasicTopology.peer[23].bitTorrentApp.bitTorrentClient.contentManager_26 	ContentManager_75_percentDownloadMarkTime:last 	-nan
attr title  "75% Download Time Ordinate, last"
attr unit  s
scalar BasicTopology.peer[23].bitTorrentApp.bitTorrentClient.contentManager_26 	ContentManager_50_percentDownloadMarkTime:last 	-nan
attr title  "50% Download Time Ordinate, last"
attr unit  s
scalar BasicTopology.peer[23].bitTorrentApp.bitTorrentClient.contentManager_26 	ContentManager_25_percentDownloadMarkTime:last 	-nan
attr title  "25% Download Time Ordinate, last"
attr unit  s
statistic BasicTopology.peer[23].bitTorrentApp.bitTorrentClient 	"Piece processing time histogram"
field count 2936
field mean 0.0073639305177112
field stddev 0.0099766190078884
field sum 21.6205
field sqrsum 0.451341
field min 0
field max 0.102482
bin	-INF	0
bin	0	936
bin	0.000909091	352
bin	0.001818182	155
bin	0.002727273	108
bin	0.003636364	126
bin	0.004545455	111
bin	0.005454546	58
bin	0.006363637	55
bin	0.007272728	27
bin	0.008181819	55
bin	0.00909091	55
bin	0.010000001	85
bin	0.010909092	81
bin	0.011818183	66
bin	0.012727274	70
bin	0.013636365	71
bin	0.014545456	54
bin	0.015454547	41
bin	0.016363638	49
bin	0.017272729	44
bin	0.01818182	40
bin	0.019090911	33
bin	0.020000002	31
bin	0.020909093	22
bin	0.021818184	27
bin	0.022727275	16
bin	0.023636366	16
bin	0.024545457	14
bin	0.025454548	15
bin	0.026363639	9
bin	0.02727273	11
bin	0.028181821	11
bin	0.029090912	5
bin	0.030000003	9
bin	0.030909094	9
bin	0.031818185	3
bin	0.032727276	5
bin	0.033636367	4
bin	0.034545458	4
bin	0.035454549	4
bin	0.03636364	1
bin	0.037272731	2
bin	0.038181822	4
bin	0.039090913	3
bin	0.040000004	2
bin	0.040909095	3
bin	0.041818186	3
bin	0.042727277	3
bin	0.043636368	0
bin	0.044545459	0
bin	0.04545455	2
bin	0.046363641	1
bin	0.047272732	0
bin	0.048181823	1
bin	0.049090914	2
bin	0.05	22
scalar BasicTopology.peer[24].networkLayer.arp 	failedResolution:count 	0
attr title  "ARP failed resolutions, count"
scalar BasicTopology.peer[24].networkLayer.arp 	initiatedResolution:count 	3
attr title  "ARP initiated resolutions, count"
scalar BasicTopology.peer[24].networkLayer.arp 	sentReplies:count 	0
attr title  "ARP replies sent, count"
scalar BasicTopology.peer[24].networkLayer.arp 	sentReq:count 	4
attr title  "ARP request sent, count"
scalar BasicTopology.peer[24].wlan[0].mgmt 	dropPkByQueue:count 	360
attr interpolationmode  none
attr source  dropPkByQueue
attr title  "packets dropped by queue, count"
scalar BasicTopology.peer[24].wlan[0].mgmt 	dropPkByQueue:sum(packetBytes) 	86419
attr interpolationmode  none
attr source  dropPkByQueue
attr title  "packets dropped by queue, sum(packetBytes)"
scalar BasicTopology.peer[24].wlan[0].mgmt 	dataQueueLen:max 	10
attr interpolationmode  sample-hold
attr title  "data queue length, max"
scalar BasicTopology.peer[24].wlan[0].mgmt 	dataQueueLen:timeavg 	0.11850014519956
attr interpolationmode  sample-hold
attr title  "data queue length, timeavg"
scalar BasicTopology.peer[24].wlan[0].mac 	"number of received packets" 	17192
scalar BasicTopology.peer[24].wlan[0].mac 	"number of collisions" 	43470
scalar BasicTopology.peer[24].wlan[0].mac 	"number of internal collisions" 	0
scalar BasicTopology.peer[24].wlan[0].mac 	"number of retry for AC 0" 	17322
scalar BasicTopology.peer[24].wlan[0].mac 	"sent and receive bites" 	43606832
scalar BasicTopology.peer[24].wlan[0].mac 	"sent packet within AC 0" 	17724
scalar BasicTopology.peer[24].wlan[0].mac 	"sent in TXOP " 	0
scalar BasicTopology.peer[24].wlan[0].mac 	"sentWithoutRetry AC 0" 	10237
scalar BasicTopology.peer[24].wlan[0].mac 	"numGivenUp AC 0" 	353
scalar BasicTopology.peer[24].wlan[0].mac 	"numDropped AC 0" 	0
scalar BasicTopology.peer[24].wlan[0].radio 	lossRate:min 	0
attr interpolationmode  backward-sample-hold
attr title  "packet loss rate, min"
scalar BasicTopology.peer[24].wlan[0].radio 	lossRate:max 	0.5
attr interpolationmode  backward-sample-hold
attr title  "packet loss rate, max"
scalar BasicTopology.peer[24].wlan[0].radio 	lossRate:timeavg 	0.035352266688901
attr interpolationmode  backward-sample-hold
attr title  "packet loss rate, timeavg"
scalar BasicTopology.peer[24].wlan[0].radio 	radioState:count 	2784568
attr interpolationmode  sample-hold
attr title  "radio state (enum), count"
statistic BasicTopology.peer[24].wlan[0].radio 	channelNo:histogram
field count 0
field mean 0
field stddev -nan
field sum 0
field sqrsum 0
field min 0
field max 0
attr interpolationmode  sample-hold
attr title  "channel no, histogram"
bin	-INF	0
bin	-0.5	0
bin	-0.46666666666667	0
bin	-0.43333333333333	0
bin	-0.4	0
bin	-0.36666666666667	0
bin	-0.33333333333333	0
bin	-0.3	0
bin	-0.26666666666667	0
bin	-0.23333333333333	0
bin	-0.2	0
bin	-0.16666666666667	0
bin	-0.13333333333333	0
bin	-0.1	0
bin	-0.066666666666667	0
bin	-0.033333333333333	0
bin	0	0
bin	0.033333333333333	0
bin	0.066666666666667	0
bin	0.1	0
bin	0.13333333333333	0
bin	0.16666666666667	0
bin	0.2	0
bin	0.23333333333333	0
bin	0.26666666666667	0
bin	0.3	0
bin	0.33333333333333	0
bin	0.36666666666667	0
bin	0.4	0
bin	0.43333333333333	0
bin	0.46666666666667	0
bin	0.5	0
scalar BasicTopology.peer[24].wlan[0].radio 	bitrate:min 	-nan
attr interpolationmode  sample-hold
attr title  "tx bitrate, min"
attr unit  bps
scalar BasicTopology.peer[24].wlan[0].radio 	bitrate:max 	-nan
attr interpolationmode  sample-hold
attr title  "tx bitrate, max"
attr unit  bps
scalar BasicTopology.peer[24].wlan[0].radio 	bitrate:timeavg 	-nan
attr interpolationmode  sample-hold
attr title  "tx bitrate, timeavg"
attr unit  bps
statistic BasicTopology.peer[24].bitTorrentApp.swarmManager 	ContentManager_PieceDownloadTime:histogram
field count 0
field mean 0
field stddev -nan
field sum 0
field sqrsum 0
field min 0
field max 0
attr title  "Swarm Piece Download Time, histogram"
bin	-INF	0
bin	-0.5	0
bin	-0.46666666666667	0
bin	-0.43333333333333	0
bin	-0.4	0
bin	-0.36666666666667	0
bin	-0.33333333333333	0
bin	-0.3	0
bin	-0.26666666666667	0
bin	-0.23333333333333	0
bin	-0.2	0
bin	-0.16666666666667	0
bin	-0.13333333333333	0
bin	-0.1	0
bin	-0.066666666666667	0
bin	-0.033333333333333	0
bin	0	0
bin	0.033333333333333	0
bin	0.066666666666667	0
bin	0.1	0
bin	0.13333333333333	0
bin	0.16666666666667	0
bin	0.2	0
bin	0.23333333333333	0
bin	0.26666666666667	0
bin	0.3	0
bin	0.33333333333333	0
bin	0.36666666666667	0
bin	0.4	0
bin	0.43333333333333	0
bin	0.46666666666667	0
bin	0.5	0
statistic BasicTopology.peer[24].bitTorrentApp.swarmManager 	ContentManager_100_percentDownloadMarkTime:histogram
field count 0
field mean 0
field stddev -nan
field sum 0
field sqrsum 0
field min 0
field max 0
attr title  "100% Download Time Ordinate, histogram"
attr unit  s
bin	-INF	0
bin	-0.5	0
bin	-0.46666666666667	0
bin	-0.43333333333333	0
bin	-0.4	0
bin	-0.36666666666667	0
bin	-0.33333333333333	0
bin	-0.3	0
bin	-0.26666666666667	0
bin	-0.23333333333333	0
bin	-0.2	0
bin	-0.16666666666667	0
bin	-0.13333333333333	0
bin	-0.1	0
bin	-0.066666666666667	0
bin	-0.033333333333333	0
bin	0	0
bin	0.033333333333333	0
bin	0.066666666666667	0
bin	0.1	0
bin	0.13333333333333	0
bin	0.16666666666667	0
bin	0.2	0
bin	0.23333333333333	0
bin	0.26666666666667	0
bin	0.3	0
bin	0.33333333333333	0
bin	0.36666666666667	0
bin	0.4	0
bin	0.43333333333333	0
bin	0.46666666666667	0
bin	0.5	0
statistic BasicTopology.peer[24].bitTorrentApp.swarmManager 	ContentManager_75_percentDownloadMarkTime:histogram
field count 0
field mean 0
field stddev -nan
field sum 0
field sqrsum 0
field min 0
field max 0
attr title  "75% Download Time Ordinate, histogram"
attr unit  s
bin	-INF	0
bin	-0.5	0
bin	-0.46666666666667	0
bin	-0.43333333333333	0
bin	-0.4	0
bin	-0.36666666666667	0
bin	-0.33333333333333	0
bin	-0.3	0
bin	-0.26666666666667	0
bin	-0.23333333333333	0
bin	-0.2	0
bin	-0.16666666666667	0
bin	-0.13333333333333	0
bin	-0.1	0
bin	-0.066666666666667	0
bin	-0.033333333333333	0
bin	0	0
bin	0.033333333333333	0
bin	0.066666666666667	0
bin	0.1	0
bin	0.13333333333333	0
bin	0.16666666666667	0
bin	0.2	0
bin	0.23333333333333	0
bin	0.26666666666667	0
bin	0.3	0
bin	0.33333333333333	0
bin	0.36666666666667	0
bin	0.4	0
bin	0.43333333333333	0
bin	0.46666666666667	0
bin	0.5	0
statistic BasicTopology.peer[24].bitTorrentApp.swarmManager 	ContentManager_50_percentDownloadMarkTime:histogram
field count 0
field mean 0
field stddev -nan
field sum 0
field sqrsum 0
field min 0
field max 0
attr title  "50% Download Time Ordinate, histogram"
attr unit  s
bin	-INF	0
bin	-0.5	0
bin	-0.46666666666667	0
bin	-0.43333333333333	0
bin	-0.4	0
bin	-0.36666666666667	0
bin	-0.33333333333333	0
bin	-0.3	0
bin	-0.26666666666667	0
bin	-0.23333333333333	0
bin	-0.2	0
bin	-0.16666666666667	0
bin	-0.13333333333333	0
bin	-0.1	0
bin	-0.066666666666667	0
bin	-0.033333333333333	0
bin	0	0
bin	0.033333333333333	0
bin	0.066666666666667	0
bin	0.1	0
bin	0.13333333333333	0
bin	0.16666666666667	0
bin	0.2	0
bin	0.23333333333333	0
bin	0.26666666666667	0
bin	0.3	0
bin	0.33333333333333	0
bin	0.36666666666667	0
bin	0.4	0
bin	0.43333333333333	0
bin	0.46666666666667	0
bin	0.5	0
statistic BasicTopology.peer[24].bitTorrentApp.swarmManager 	ContentManager_25_percentDownloadMarkTime:histogram
field count 0
field mean 0
field stddev -nan
field sum 0
field sqrsum 0
field min 0
field max 0
attr title  "25% Download Time Ordinate, histogram"
attr unit  s
bin	-INF	0
bin	-0.5	0
bin	-0.46666666666667	0
bin	-0.43333333333333	0
bin	-0.4	0
bin	-0.36666666666667	0
bin	-0.33333333333333	0
bin	-0.3	0
bin	-0.26666666666667	0
bin	-0.23333333333333	0
bin	-0.2	0
bin	-0.16666666666667	0
bin	-0.13333333333333	0
bin	-0.1	0
bin	-0.066666666666667	0
bin	-0.033333333333333	0
bin	0	0
bin	0.033333333333333	0
bin	0.066666666666667	0
bin	0.1	0
bin	0.13333333333333	0
bin	0.16666666666667	0
bin	0.2	0
bin	0.23333333333333	0
bin	0.26666666666667	0
bin	0.3	0
bin	0.33333333333333	0
bin	0.36666666666667	0
bin	0.4	0
bin	0.43333333333333	0
bin	0.46666666666667	0
bin	0.5	0
scalar BasicTopology.peer[24].bitTorrentApp.swarmManager 	SwarmManager_EnteredSwarm:last 	-nan
attr title  "Enter Swarm Instant, last"
scalar BasicTopology.peer[24].bitTorrentApp.bitTorrentClient.contentManager_26 	ContentManager_75_percentDownloadMarkTime:last 	-nan
attr title  "75% Download Time Ordinate, last"
attr unit  s
scalar BasicTopology.peer[24].bitTorrentApp.bitTorrentClient.contentManager_26 	ContentManager_50_percentDownloadMarkTime:last 	-nan
attr title  "50% Download Time Ordinate, last"
attr unit  s
scalar BasicTopology.peer[24].bitTorrentApp.bitTorrentClient.contentManager_26 	ContentManager_25_percentDownloadMarkTime:last 	-nan
attr title  "25% Download Time Ordinate, last"
attr unit  s
statistic BasicTopology.peer[24].bitTorrentApp.bitTorrentClient 	"Piece processing time histogram"
field count 2936
field mean 0.0073639305177112
field stddev 0.0099766190078884
field sum 21.6205
field sqrsum 0.451341
field min 0
field max 0.102482
bin	-INF	0
bin	0	936
bin	0.000909091	352
bin	0.001818182	155
bin	0.002727273	108
bin	0.003636364	126
bin	0.004545455	111
bin	0.005454546	58
bin	0.006363637	55
bin	0.007272728	27
bin	0.008181819	55
bin	0.00909091	55
bin	0.010000001	85
bin	0.010909092	81
bin	0.011818183	66
bin	0.012727274	70
bin	0.013636365	71
bin	0.014545456	54
bin	0.015454547	41
bin	0.016363638	49
bin	0.017272729	44
bin	0.01818182	40
bin	0.019090911	33
bin	0.020000002	31
bin	0.020909093	22
bin	0.021818184	27
bin	0.022727275	16
bin	0.023636366	16
bin	0.024545457	14
bin	0.025454548	15
bin	0.026363639	9
bin	0.02727273	11
bin	0.028181821	11
bin	0.029090912	5
bin	0.030000003	9
bin	0.030909094	9
bin	0.031818185	3
bin	0.032727276	5
bin	0.033636367	4
bin	0.034545458	4
bin	0.035454549	4
bin	0.03636364	1
bin	0.037272731	2
bin	0.038181822	4
bin	0.039090913	3
bin	0.040000004	2
bin	0.040909095	3
bin	0.041818186	3
bin	0.042727277	3
bin	0.043636368	0
bin	0.044545459	0
bin	0.04545455	2
bin	0.046363641	1
bin	0.047272732	0
bin	0.048181823	1
bin	0.049090914	2
bin	0.05	22
scalar BasicTopology.tracker.networkLayer.arp 	failedResolution:count 	0
attr title  "ARP failed resolutions, count"
scalar BasicTopology.tracker.networkLayer.arp 	initiatedResolution:count 	0
attr title  "ARP initiated resolutions, count"
scalar BasicTopology.tracker.networkLayer.arp 	sentReplies:count 	0
attr title  "ARP replies sent, count"
scalar BasicTopology.tracker.networkLayer.arp 	sentReq:count 	0
attr title  "ARP request sent, count"
scalar BasicTopology.tracker.wlan[0].mgmt 	dropPkByQueue:count 	0
attr interpolationmode  none
attr source  dropPkByQueue
attr title  "packets dropped by queue, count"
scalar BasicTopology.tracker.wlan[0].mgmt 	dropPkByQueue:sum(packetBytes) 	0
attr interpolationmode  none
attr source  dropPkByQueue
attr title  "packets dropped by queue, sum(packetBytes)"
scalar BasicTopology.tracker.wlan[0].mgmt 	dataQueueLen:max 	-nan
attr interpolationmode  sample-hold
attr title  "data queue length, max"
scalar BasicTopology.tracker.wlan[0].mgmt 	dataQueueLen:timeavg 	-nan
attr interpolationmode  sample-hold
attr title  "data queue length, timeavg"
scalar BasicTopology.tracker.wlan[0].mac 	"number of received packets" 	0
scalar BasicTopology.tracker.wlan[0].mac 	"number of collisions" 	0
scalar BasicTopology.tracker.wlan[0].mac 	"number of internal collisions" 	0
scalar BasicTopology.tracker.wlan[0].mac 	"number of retry for AC 0" 	0
scalar BasicTopology.tracker.wlan[0].mac 	"sent and receive bites" 	0
scalar BasicTopology.tracker.wlan[0].mac 	"sent packet within AC 0" 	0
scalar BasicTopology.tracker.wlan[0].mac 	"sent in TXOP " 	0
scalar BasicTopology.tracker.wlan[0].mac 	"sentWithoutRetry AC 0" 	0
scalar BasicTopology.tracker.wlan[0].mac 	"numGivenUp AC 0" 	0
scalar BasicTopology.tracker.wlan[0].mac 	"numDropped AC 0" 	0
scalar BasicTopology.tracker.wlan[0].radio 	lossRate:min 	-nan
attr interpolationmode  backward-sample-hold
attr title  "packet loss rate, min"
scalar BasicTopology.tracker.wlan[0].radio 	lossRate:max 	-nan
attr interpolationmode  backward-sample-hold
attr title  "packet loss rate, max"
scalar BasicTopology.tracker.wlan[0].radio 	lossRate:timeavg 	-nan
attr interpolationmode  backward-sample-hold
attr title  "packet loss rate, timeavg"
scalar BasicTopology.tracker.wlan[0].radio 	radioState:count 	0
attr interpolationmode  sample-hold
attr title  "radio state (enum), count"
statistic BasicTopology.tracker.wlan[0].radio 	channelNo:histogram
field count 0
field mean 0
field stddev -nan
field sum 0
field sqrsum 0
field min 0
field max 0
attr interpolationmode  sample-hold
attr title  "channel no, histogram"
bin	-INF	0
bin	-0.5	0
bin	-0.46666666666667	0
bin	-0.43333333333333	0
bin	-0.4	0
bin	-0.36666666666667	0
bin	-0.33333333333333	0
bin	-0.3	0
bin	-0.26666666666667	0
bin	-0.23333333333333	0
bin	-0.2	0
bin	-0.16666666666667	0
bin	-0.13333333333333	0
bin	-0.1	0
bin	-0.066666666666667	0
bin	-0.033333333333333	0
bin	0	0
bin	0.033333333333333	0
bin	0.066666666666667	0
bin	0.1	0
bin	0.13333333333333	0
bin	0.16666666666667	0
bin	0.2	0
bin	0.23333333333333	0
bin	0.26666666666667	0
bin	0.3	0
bin	0.33333333333333	0
bin	0.36666666666667	0
bin	0.4	0
bin	0.43333333333333	0
bin	0.46666666666667	0
bin	0.5	0
scalar BasicTopology.tracker.wlan[0].radio 	bitrate:min 	-nan
attr interpolationmode  sample-hold
attr title  "tx bitrate, min"
attr unit  bps
scalar BasicTopology.tracker.wlan[0].radio 	bitrate:max 	-nan
attr interpolationmode  sample-hold
attr title  "tx bitrate, max"
attr unit  bps
scalar BasicTopology.tracker.wlan[0].radio 	bitrate:timeavg 	-nan
attr interpolationmode  sample-hold
attr title  "tx bitrate, timeavg"
attr unit  bps
scalar BasicTopology 	PieceSent:count 	4835
attr source  BitTorrentClient_PieceSent
attr title  "Sum of Pieces sent, count"
